   Input file: mV1_rho
  Output file: mV1_rho.out
Database file: ../database/phreeqc.dat

------------------
Reading data base.
------------------

	SOLUTION_MASTER_SPECIES
	SOLUTION_SPECIES
	PHASES
	EXCHANGE_MASTER_SPECIES
	EXCHANGE_SPECIES
	SURFACE_MASTER_SPECIES
	SURFACE_SPECIES
	RATES
	END
------------------------------------
Reading input data for simulation 1.
------------------------------------

	DATABASE ../database/phreeqc.dat
	REACTION_TEMPERATURE 1
	 0 230 in 21
	SOLUTION 1
	 units umol/kgw
	 Na 1
	 K 1
	 Cl 2
	USER_GRAPH 1 
	 -chart_title  "Alkali - Chlorides"
	-plot_csv_file mV1_rho.dat
	-headings -Vm
	-axis_scale x_axis 270 510
	-axis_scale y_axis -10 30
	-axis_titles "Temperature / K" "molar Volume / cm3/mol"
	 -connect false
	-headings Vm
	 20 mV = Vm("Na+") + Vm("Cl-")
	 30 plot_xy tk, mV, color = Red, symbol = None, line_width = 2
	 40 mV = Vm("K+") + Vm("Cl-")
	 50 plot_xy tk, mV, color = Green, symbol = None, line_width = 2
	END
-------------------------------------------
Beginning of initial solution calculations.
-------------------------------------------

Initial solution 1.	

-----------------------------Solution composition------------------------------

	Elements           Molality       Moles

	Cl                2.000e-06   2.000e-06
	K                 1.000e-06   1.000e-06
	Na                1.000e-06   1.000e-06

----------------------------Description of solution----------------------------

                                       pH  =   7.000    
                                       pe  =   4.000    
       Specific Conductance (uS/cm, 25 oC) = 0
                          Density (g/cm3)  =   0.99704
                        Activity of water  =   1.000
                           Ionic strength  =   2.100e-06
                       Mass of water (kg)  =   1.000e+00
                 Total alkalinity (eq/kg)  =   2.215e-10
                    Total carbon (mol/kg)  =   0.000e+00
                       Total CO2 (mol/kg)  =   0.000e+00
                      Temperature (deg C)  =  25.00
                  Electrical balance (eq)  =  -2.215e-10
 Percent error, 100*(Cat-|An|)/(Cat+|An|)  =  -0.01
                               Iterations  =   2
                                  Total H  = 1.110124e+02
                                  Total O  = 5.550622e+01

----------------------------Distribution of species----------------------------

                                               Log       Log       Log    mole V
   Species          Molality    Activity  Molality  Activity     Gamma   cm3/mol

   OH-             1.004e-07   1.002e-07    -6.998    -6.999    -0.001     -4.11
   H+              1.002e-07   1.000e-07    -6.999    -7.000    -0.001      0.00
   H2O             5.551e+01   1.000e+00     1.744    -0.000     0.000     18.07
Cl            2.000e-06
   Cl-             2.000e-06   1.997e-06    -5.699    -5.700    -0.001     18.04
H(0)          1.416e-25
   H2              7.079e-26   7.079e-26   -25.150   -25.150     0.000     28.61
K             1.000e-06
   K+              1.000e-06   9.983e-07    -6.000    -6.001    -0.001      8.90
   KOH             3.461e-14   3.461e-14   -13.461   -13.461     0.000     (0)  
Na            1.000e-06
   Na+             1.000e-06   9.983e-07    -6.000    -6.001    -0.001     -1.22
   NaOH            1.001e-23   1.001e-23   -23.000   -23.000     0.000     (0)  
O(0)          0.000e+00
   O2              0.000e+00   0.000e+00   -42.080   -42.080     0.000     30.40

------------------------------Saturation indices-------------------------------

	Phase               SI   log IAP   log K(298 K,   1 atm)

	H2(g)           -22.05    -25.15   -3.10  H2
	H2O(g)           -1.50     -0.00    1.50  H2O
	Halite          -13.28    -11.70    1.58  NaCl
	O2(g)           -39.19    -42.08   -2.89  O2


-----------------------------------------
Beginning of batch-reaction calculations.
-----------------------------------------

Reaction step 1.

Using solution 1.	
Using temperature 1.	

-----------------------------Solution composition------------------------------

	Elements           Molality       Moles

	Cl                2.000e-06   2.000e-06
	K                 1.000e-06   1.000e-06
	Na                1.000e-06   1.000e-06

----------------------------Description of solution----------------------------

                                       pH  =   7.481      Charge balance
                                       pe  =  12.533      Adjusted to redox equilibrium
       Specific Conductance (uS/cm, 0 oC) = 0
                          Density (g/cm3)  =   0.99984
                        Activity of water  =   1.000
                           Ionic strength  =   2.033e-06
                       Mass of water (kg)  =   1.000e+00
                 Total alkalinity (eq/kg)  =   2.215e-10
                    Total carbon (mol/kg)  =   0.000e+00
                       Total CO2 (mol/kg)  =   0.000e+00
                      Temperature (deg C)  =   0.00
                  Electrical balance (eq)  =  -2.215e-10
 Percent error, 100*(Cat-|An|)/(Cat+|An|)  =  -0.01
                               Iterations  =  12
                                  Total H  = 1.110124e+02
                                  Total O  = 5.550622e+01

----------------------------Distribution of species----------------------------

                                               Log       Log       Log    mole V
   Species          Molality    Activity  Molality  Activity     Gamma   cm3/mol

   OH-             3.329e-08   3.323e-08    -7.478    -7.478    -0.001     -6.62
   H+              3.306e-08   3.301e-08    -7.481    -7.481    -0.001      0.00
   H2O             5.551e+01   1.000e+00     1.744    -0.000     0.000     18.02
Cl            2.000e-06
   Cl-             2.000e-06   1.997e-06    -5.699    -5.700    -0.001     16.40
H(0)          0.000e+00
   H2              0.000e+00   0.000e+00   -43.061   -43.061     0.000     28.65
K             1.000e-06
   K+              1.000e-06   9.984e-07    -6.000    -6.001    -0.001      7.33
   KOH             1.049e-13   1.049e-13   -12.979   -12.979     0.000     (0)  
Na            1.000e-06
   Na+             1.000e-06   9.984e-07    -6.000    -6.001    -0.001     -3.12
   NaOH            3.318e-24   3.318e-24   -23.479   -23.479     0.000     (0)  
O(0)          1.720e-15
   O2              8.600e-16   8.600e-16   -15.065   -15.065     0.000     27.49

------------------------------Saturation indices-------------------------------

	Phase               SI   log IAP   log K(273 K,   1 atm)

	H2(g)           -40.05    -43.06   -3.01  H2
	H2O(g)           -2.21     -0.00    2.21  H2O
	Halite          -13.22    -11.70    1.52  NaCl
	O2(g)           -12.41    -15.07   -2.66  O2


Reaction step 2.

Using solution 1.	
Using temperature 1.	

-----------------------------Solution composition------------------------------

	Elements           Molality       Moles

	Cl                2.000e-06   2.000e-06
	K                 1.000e-06   1.000e-06
	Na                1.000e-06   1.000e-06

----------------------------Description of solution----------------------------

                                       pH  =   7.243      Charge balance
                                       pe  =  11.682      Adjusted to redox equilibrium
       Specific Conductance (uS/cm, 11 oC) = 0
                          Density (g/cm3)  =   0.99955
                        Activity of water  =   1.000
                           Ionic strength  =   2.057e-06
                       Mass of water (kg)  =   1.000e+00
                 Total alkalinity (eq/kg)  =   2.215e-10
                    Total carbon (mol/kg)  =   0.000e+00
                       Total CO2 (mol/kg)  =   0.000e+00
                      Temperature (deg C)  =  11.50
                  Electrical balance (eq)  =  -2.215e-10
 Percent error, 100*(Cat-|An|)/(Cat+|An|)  =  -0.01
                               Iterations  =  11
                                  Total H  = 1.110124e+02
                                  Total O  = 5.550622e+01

----------------------------Distribution of species----------------------------

                                               Log       Log       Log    mole V
   Species          Molality    Activity  Molality  Activity     Gamma   cm3/mol

   OH-             5.740e-08   5.731e-08    -7.241    -7.242    -0.001     -5.06
   H+              5.718e-08   5.709e-08    -7.243    -7.243    -0.001      0.00
   H2O             5.551e+01   1.000e+00     1.744    -0.000     0.000     18.02
Cl            2.000e-06
   Cl-             2.000e-06   1.997e-06    -5.699    -5.700    -0.001     17.43
H(0)          0.000e+00
   H2              0.000e+00   0.000e+00   -40.939   -40.939     0.000     28.62
K             1.000e-06
   K+              1.000e-06   9.984e-07    -6.000    -6.001    -0.001      8.25
   KOH             6.064e-14   6.064e-14   -13.217   -13.217     0.000     (0)  
Na            1.000e-06
   Na+             1.000e-06   9.984e-07    -6.000    -6.001    -0.001     -2.03
   NaOH            5.722e-24   5.722e-24   -23.242   -23.242     0.000     (0)  
O(0)          1.720e-15
   O2              8.600e-16   8.600e-16   -15.066   -15.066     0.000     29.12

------------------------------Saturation indices-------------------------------

	Phase               SI   log IAP   log K(284 K,   1 atm)

	H2(g)           -37.88    -40.94   -3.06  H2
	H2O(g)           -1.87     -0.00    1.87  H2O
	Halite          -13.25    -11.70    1.55  NaCl
	O2(g)           -12.29    -15.07   -2.78  O2


Reaction step 3.

Using solution 1.	
Using temperature 1.	

-----------------------------Solution composition------------------------------

	Elements           Molality       Moles

	Cl                2.000e-06   2.000e-06
	K                 1.000e-06   1.000e-06
	Na                1.000e-06   1.000e-06

----------------------------Description of solution----------------------------

                                       pH  =   7.034      Charge balance
                                       pe  =  11.379      Adjusted to redox equilibrium
       Specific Conductance (uS/cm, 23 oC) = 0
                          Density (g/cm3)  =   0.99754
                        Activity of water  =   1.000
                           Ionic strength  =   2.093e-06
                       Mass of water (kg)  =   1.000e+00
                 Total alkalinity (eq/kg)  =   2.215e-10
                    Total carbon (mol/kg)  =   0.000e+00
                       Total CO2 (mol/kg)  =   0.000e+00
                      Temperature (deg C)  =  23.00
                  Electrical balance (eq)  =  -2.215e-10
 Percent error, 100*(Cat-|An|)/(Cat+|An|)  =  -0.01
                               Iterations  =  10
                                  Total H  = 1.110124e+02
                                  Total O  = 5.550622e+01

----------------------------Distribution of species----------------------------

                                               Log       Log       Log    mole V
   Species          Molality    Activity  Molality  Activity     Gamma   cm3/mol

   OH-             9.287e-08   9.272e-08    -7.032    -7.033    -0.001     -4.21
   H+              9.265e-08   9.250e-08    -7.033    -7.034    -0.001      0.00
   H2O             5.551e+01   1.000e+00     1.744    -0.000     0.000     18.06
Cl            2.000e-06
   Cl-             2.000e-06   1.997e-06    -5.699    -5.700    -0.001     17.98
H(0)          2.160e-40
   H2              1.080e-40   1.080e-40   -39.967   -39.967     0.000     28.61
K             1.000e-06
   K+              1.000e-06   9.983e-07    -6.000    -6.001    -0.001      8.83
   KOH             3.742e-14   3.742e-14   -13.427   -13.427     0.000     (0)  
Na            1.000e-06
   Na+             1.000e-06   9.983e-07    -6.000    -6.001    -0.001     -1.32
   NaOH            9.256e-24   9.256e-24   -23.034   -23.034     0.000     (0)  
O(0)          1.601e-13
   O2              8.003e-14   8.003e-14   -13.097   -13.097     0.000     30.24

------------------------------Saturation indices-------------------------------

	Phase               SI   log IAP   log K(296 K,   1 atm)

	H2(g)           -36.87    -39.97   -3.10  H2
	H2O(g)           -1.55     -0.00    1.55  H2O
	Halite          -13.28    -11.70    1.58  NaCl
	O2(g)           -10.22    -13.10   -2.88  O2


Reaction step 4.

Using solution 1.	
Using temperature 1.	

-----------------------------Solution composition------------------------------

	Elements           Molality       Moles

	Cl                2.000e-06   2.000e-06
	K                 1.000e-06   1.000e-06
	Na                1.000e-06   1.000e-06

----------------------------Description of solution----------------------------

                                       pH  =   6.848      Charge balance
                                       pe  =  10.369      Adjusted to redox equilibrium
       Specific Conductance (uS/cm, 34 oC) = 0
                          Density (g/cm3)  =   0.99420
                        Activity of water  =   1.000
                           Ionic strength  =   2.142e-06
                       Mass of water (kg)  =   1.000e+00
                 Total alkalinity (eq/kg)  =   2.215e-10
                    Total carbon (mol/kg)  =   0.000e+00
                       Total CO2 (mol/kg)  =   0.000e+00
                      Temperature (deg C)  =  34.50
                  Electrical balance (eq)  =  -2.215e-10
 Percent error, 100*(Cat-|An|)/(Cat+|An|)  =  -0.01
                               Iterations  =   9
                                  Total H  = 1.110124e+02
                                  Total O  = 5.550622e+01

----------------------------Distribution of species----------------------------

                                               Log       Log       Log    mole V
   Species          Molality    Activity  Molality  Activity     Gamma   cm3/mol

   OH-             1.422e-07   1.420e-07    -6.847    -6.848    -0.001     -3.79
   H+              1.420e-07   1.418e-07    -6.848    -6.848    -0.001      0.00
   H2O             5.551e+01   1.000e+00     1.744    -0.000     0.000     18.12
Cl            2.000e-06
   Cl-             2.000e-06   1.997e-06    -5.699    -5.700    -0.001     18.21
H(0)          4.736e-38
   H2              2.368e-38   2.368e-38   -37.626   -37.626     0.000     28.60
K             1.000e-06
   K+              1.000e-06   9.983e-07    -6.000    -6.001    -0.001      9.19
   KOH             2.442e-14   2.442e-14   -13.612   -13.612     0.000     (0)  
Na            1.000e-06
   Na+             1.000e-06   9.983e-07    -6.000    -6.001    -0.001     -0.83
   NaOH            1.417e-23   1.417e-23   -22.849   -22.849     0.000     (0)  
O(0)          1.391e-14
   O2              6.957e-15   6.957e-15   -14.158   -14.158     0.000     31.07

------------------------------Saturation indices-------------------------------

	Phase               SI   log IAP   log K(307 K,   1 atm)

	H2(g)           -34.51    -37.63   -3.12  H2
	H2O(g)           -1.27     -0.00    1.27  H2O
	Halite          -13.30    -11.70    1.60  NaCl
	O2(g)           -11.20    -14.16   -2.95  O2


Reaction step 5.

Using solution 1.	
Using temperature 1.	

-----------------------------Solution composition------------------------------

	Elements           Molality       Moles

	Cl                2.000e-06   2.000e-06
	K                 1.000e-06   1.000e-06
	Na                1.000e-06   1.000e-06

----------------------------Description of solution----------------------------

                                       pH  =   6.684      Charge balance
                                       pe  =   9.444      Adjusted to redox equilibrium
       Specific Conductance (uS/cm, 46 oC) = 0
                          Density (g/cm3)  =   0.98979
                        Activity of water  =   1.000
                           Ionic strength  =   2.208e-06
                       Mass of water (kg)  =   1.000e+00
                 Total alkalinity (eq/kg)  =   2.215e-10
                    Total carbon (mol/kg)  =   0.000e+00
                       Total CO2 (mol/kg)  =   0.000e+00
                      Temperature (deg C)  =  46.00
                  Electrical balance (eq)  =  -2.215e-10
 Percent error, 100*(Cat-|An|)/(Cat+|An|)  =  -0.01
                               Iterations  =   9
                                  Total H  = 1.110124e+02
                                  Total O  = 5.550622e+01

----------------------------Distribution of species----------------------------

                                               Log       Log       Log    mole V
   Species          Molality    Activity  Molality  Activity     Gamma   cm3/mol

   OH-             2.077e-07   2.073e-07    -6.683    -6.683    -0.001     -3.69
   H+              2.074e-07   2.071e-07    -6.683    -6.684    -0.001      0.00
   H2O             5.551e+01   1.000e+00     1.744    -0.000     0.000     18.20
Cl            2.000e-06
   Cl-             2.000e-06   1.996e-06    -5.699    -5.700    -0.001     18.23
H(0)          6.448e-36
   H2              3.224e-36   3.224e-36   -35.492   -35.492     0.000     28.59
K             1.000e-06
   K+              1.000e-06   9.982e-07    -6.000    -6.001    -0.001      9.42
   KOH             1.671e-14   1.671e-14   -13.777   -13.777     0.000     (0)  
Na            1.000e-06
   Na+             1.000e-06   9.982e-07    -6.000    -6.001    -0.001     -0.48
   NaOH            2.069e-23   2.069e-23   -22.684   -22.684     0.000     (0)  
O(0)          1.720e-15
   O2              8.600e-16   8.600e-16   -15.066   -15.066     0.000     31.72

------------------------------Saturation indices-------------------------------

	Phase               SI   log IAP   log K(319 K,   1 atm)

	H2(g)           -32.36    -35.49   -3.13  H2
	H2O(g)           -1.00     -0.00    1.00  H2O
	Halite          -13.33    -11.70    1.63  NaCl
	O2(g)           -12.05    -15.07   -3.01  O2


Reaction step 6.

Using solution 1.	
Using temperature 1.	

-----------------------------Solution composition------------------------------

	Elements           Molality       Moles

	Cl                2.000e-06   2.000e-06
	K                 1.000e-06   1.000e-06
	Na                1.000e-06   1.000e-06

----------------------------Description of solution----------------------------

                                       pH  =   6.537      Charge balance
                                       pe  =   9.139      Adjusted to redox equilibrium
       Specific Conductance (uS/cm, 57 oC) = 0
                          Density (g/cm3)  =   0.98446
                        Activity of water  =   1.000
                           Ionic strength  =   2.291e-06
                       Mass of water (kg)  =   1.000e+00
                 Total alkalinity (eq/kg)  =   2.215e-10
                    Total carbon (mol/kg)  =   0.000e+00
                       Total CO2 (mol/kg)  =   0.000e+00
                      Temperature (deg C)  =  57.50
                  Electrical balance (eq)  =  -2.215e-10
 Percent error, 100*(Cat-|An|)/(Cat+|An|)  =  -0.00
                               Iterations  =   8
                                  Total H  = 1.110124e+02
                                  Total O  = 5.550622e+01

----------------------------Distribution of species----------------------------

                                               Log       Log       Log    mole V
   Species          Molality    Activity  Molality  Activity     Gamma   cm3/mol

   OH-             2.909e-07   2.904e-07    -6.536    -6.537    -0.001     -3.84
   H+              2.907e-07   2.901e-07    -6.537    -6.537    -0.001      0.00
   H2O             5.551e+01   1.000e+00     1.744    -0.000     0.000     18.30
Cl            2.000e-06
   Cl-             2.000e-06   1.996e-06    -5.699    -5.700    -0.001     18.07
H(0)          4.691e-35
   H2              2.345e-35   2.345e-35   -34.630   -34.630     0.000     28.58
K             1.000e-06
   K+              1.000e-06   9.981e-07    -6.000    -6.001    -0.001      9.56
   KOH             1.193e-14   1.193e-14   -13.923   -13.923     0.000     (0)  
Na            1.000e-06
   Na+             1.000e-06   9.981e-07    -6.000    -6.001    -0.001     -0.23
   NaOH            2.898e-23   2.898e-23   -22.538   -22.538     0.000     (0)  
O(0)          4.347e-14
   O2              2.174e-14   2.174e-14   -13.663   -13.663     0.000     32.27

------------------------------Saturation indices-------------------------------

	Phase               SI   log IAP   log K(330 K,   1 atm)

	H2(g)           -31.49    -34.63   -3.14  H2
	H2O(g)           -0.76     -0.00    0.76  H2O
	Halite          -13.35    -11.70    1.65  NaCl
	O2(g)           -10.61    -13.66   -3.06  O2


Reaction step 7.

Using solution 1.	
Using temperature 1.	

-----------------------------Solution composition------------------------------

	Elements           Molality       Moles

	Cl                2.000e-06   2.000e-06
	K                 1.000e-06   1.000e-06
	Na                1.000e-06   1.000e-06

----------------------------Description of solution----------------------------

                                       pH  =   6.407      Charge balance
                                       pe  =   8.192      Adjusted to redox equilibrium
       Specific Conductance (uS/cm, 69 oC) = 1
                          Density (g/cm3)  =   0.97833
                        Activity of water  =   1.000
                           Ionic strength  =   2.393e-06
                       Mass of water (kg)  =   1.000e+00
                 Total alkalinity (eq/kg)  =   2.215e-10
                    Total carbon (mol/kg)  =   0.000e+00
                       Total CO2 (mol/kg)  =   0.000e+00
                      Temperature (deg C)  =  69.00
                  Electrical balance (eq)  =  -2.215e-10
 Percent error, 100*(Cat-|An|)/(Cat+|An|)  =  -0.00
                               Iterations  =   8
                                  Total H  = 1.110124e+02
                                  Total O  = 5.550622e+01

----------------------------Distribution of species----------------------------

                                               Log       Log       Log    mole V
   Species          Molality    Activity  Molality  Activity     Gamma   cm3/mol

   OH-             3.930e-07   3.922e-07    -6.406    -6.406    -0.001     -4.21
   H+              3.928e-07   3.920e-07    -6.406    -6.407    -0.001      0.00
   H2O             5.551e+01   1.000e+00     1.744    -0.000     0.000     18.42
Cl            2.000e-06
   Cl-             2.000e-06   1.996e-06    -5.699    -5.700    -0.001     17.75
H(0)          6.124e-33
   H2              3.062e-33   3.062e-33   -32.514   -32.514     0.000     28.58
K             1.000e-06
   K+              1.000e-06   9.980e-07    -6.000    -6.001    -0.001      9.61
   KOH             8.828e-15   8.828e-15   -14.054   -14.054     0.000     (0)  
Na            1.000e-06
   Na+             1.000e-06   9.980e-07    -6.000    -6.001    -0.001     -0.04
   NaOH            3.914e-23   3.914e-23   -22.407   -22.407     0.000     (0)  
O(0)          2.103e-15
   O2              1.052e-15   1.052e-15   -14.978   -14.978     0.000     32.75

------------------------------Saturation indices-------------------------------

	Phase               SI   log IAP   log K(342 K,   1 atm)

	H2(g)           -29.38    -32.51   -3.14  H2
	H2O(g)           -0.53     -0.00    0.53  H2O
	Halite          -13.37    -11.70    1.67  NaCl
	O2(g)           -11.89    -14.98   -3.09  O2


Reaction step 8.

Using solution 1.	
Using temperature 1.	

-----------------------------Solution composition------------------------------

	Elements           Molality       Moles

	Cl                2.000e-06   2.000e-06
	K                 1.000e-06   1.000e-06
	Na                1.000e-06   1.000e-06

----------------------------Description of solution----------------------------

                                       pH  =   6.290      Charge balance
                                       pe  =   7.587      Adjusted to redox equilibrium
       Specific Conductance (uS/cm, 80 oC) = 1
                          Density (g/cm3)  =   0.97147
                        Activity of water  =   1.000
                           Ionic strength  =   2.514e-06
                       Mass of water (kg)  =   1.000e+00
                 Total alkalinity (eq/kg)  =   2.215e-10
                    Total carbon (mol/kg)  =   0.000e+00
                       Total CO2 (mol/kg)  =   0.000e+00
                      Temperature (deg C)  =  80.50
                  Electrical balance (eq)  =  -2.215e-10
 Percent error, 100*(Cat-|An|)/(Cat+|An|)  =  -0.00
                               Iterations  =   7
                                  Total H  = 1.110124e+02
                                  Total O  = 5.550622e+01

----------------------------Distribution of species----------------------------

                                               Log       Log       Log    mole V
   Species          Molality    Activity  Molality  Activity     Gamma   cm3/mol

   OH-             5.141e-07   5.130e-07    -6.289    -6.290    -0.001     -4.78
   H+              5.139e-07   5.128e-07    -6.289    -6.290    -0.001      0.00
   H2O             5.551e+01   1.000e+00     1.744    -0.000     0.000     18.55
Cl            2.000e-06
   Cl-             2.000e-06   1.996e-06    -5.699    -5.700    -0.001     17.29
H(0)          1.563e-31
   H2              7.815e-32   7.815e-32   -31.107   -31.107     0.000     28.57
K             1.000e-06
   K+              1.000e-06   9.979e-07    -6.000    -6.001    -0.001      9.60
   KOH             6.747e-15   6.747e-15   -14.171   -14.171     0.000     (0)  
Na            1.000e-06
   Na+             1.000e-06   9.979e-07    -6.000    -6.001    -0.001      0.09
   NaOH            5.120e-23   5.120e-23   -22.291   -22.291     0.000     (0)  
O(0)          1.720e-15
   O2              8.600e-16   8.600e-16   -15.066   -15.066     0.000     33.19

------------------------------Saturation indices-------------------------------

	Phase               SI   log IAP   log K(353 K,   1 atm)

	H2(g)           -27.98    -31.11   -3.13  H2
	H2O(g)           -0.33     -0.00    0.33  H2O
	Halite          -13.39    -11.70    1.69  NaCl
	O2(g)           -11.96    -15.07   -3.11  O2


Reaction step 9.

Using solution 1.	
Using temperature 1.	

-----------------------------Solution composition------------------------------

	Elements           Molality       Moles

	Cl                2.000e-06   2.000e-06
	K                 1.000e-06   1.000e-06
	Na                1.000e-06   1.000e-06

----------------------------Description of solution----------------------------

                                       pH  =   6.186      Charge balance
                                       pe  =   7.044      Adjusted to redox equilibrium
       Specific Conductance (uS/cm, 92 oC) = 1
                          Density (g/cm3)  =   0.96395
                        Activity of water  =   1.000
                           Ionic strength  =   2.653e-06
                       Mass of water (kg)  =   1.000e+00
                 Total alkalinity (eq/kg)  =   2.215e-10
                    Total carbon (mol/kg)  =   0.000e+00
                       Total CO2 (mol/kg)  =   0.000e+00
                      Temperature (deg C)  =  92.00
                  Electrical balance (eq)  =  -2.215e-10
 Percent error, 100*(Cat-|An|)/(Cat+|An|)  =  -0.00
                               Iterations  =   8
                                  Total H  = 1.110124e+02
                                  Total O  = 5.550622e+01

----------------------------Distribution of species----------------------------

                                               Log       Log       Log    mole V
   Species          Molality    Activity  Molality  Activity     Gamma   cm3/mol

   OH-             6.535e-07   6.521e-07    -6.185    -6.186    -0.001     -5.56
   H+              6.533e-07   6.519e-07    -6.185    -6.186    -0.001      0.00
   H2O             5.551e+01   1.000e+00     1.744    -0.000     0.000     18.69
Cl            2.000e-06
   Cl-             2.000e-06   1.996e-06    -5.699    -5.700    -0.001     16.66
H(0)          2.851e-30
   H2              1.425e-30   1.425e-30   -29.846   -29.846     0.000     28.57
K             1.000e-06
   K+              1.000e-06   9.978e-07    -6.000    -6.001    -0.001      9.52
   KOH             5.307e-15   5.307e-15   -14.275   -14.275     0.000     (0)  
Na            1.000e-06
   Na+             1.000e-06   9.978e-07    -6.000    -6.001    -0.001      0.18
   NaOH            6.507e-23   6.507e-23   -22.187   -22.187     0.000     (0)  
O(0)          1.855e-15
   O2              9.275e-16   9.275e-16   -15.033   -15.033     0.000     33.61

------------------------------Saturation indices-------------------------------

	Phase               SI   log IAP   log K(365 K,   1 atm)

	H2(g)           -26.73    -29.85   -3.11  H2
	H2O(g)           -0.13     -0.00    0.13  H2O
	Halite          -13.41    -11.70    1.71  NaCl
	O2(g)           -11.92    -15.03   -3.11  O2


Reaction step 10.

Using solution 1.	
Using temperature 1.	

-----------------------------Solution composition------------------------------

	Elements           Molality       Moles

	Cl                2.000e-06   2.000e-06
	K                 1.000e-06   1.000e-06
	Na                1.000e-06   1.000e-06

----------------------------Description of solution----------------------------

                                       pH  =   6.093      Charge balance
                                       pe  =   6.513      Adjusted to redox equilibrium
       Specific Conductance (uS/cm, 103 oC) = 2
                          Density (g/cm3)  =   0.95581
                        Activity of water  =   1.000
                           Ionic strength  =   2.810e-06
                       Mass of water (kg)  =   1.000e+00
                 Total alkalinity (eq/kg)  =   2.215e-10
                    Total carbon (mol/kg)  =   0.000e+00
                       Total CO2 (mol/kg)  =   0.000e+00
                      Temperature (deg C)  = 103.50
                           Pressure (atm)  =  1.13
                  Electrical balance (eq)  =  -2.215e-10
 Percent error, 100*(Cat-|An|)/(Cat+|An|)  =  -0.00
                               Iterations  =   7
                                  Total H  = 1.110124e+02
                                  Total O  = 5.550622e+01

----------------------------Distribution of species----------------------------

                                               Log       Log       Log    mole V
   Species          Molality    Activity  Molality  Activity     Gamma   cm3/mol

   OH-             8.098e-07   8.079e-07    -6.092    -6.093    -0.001     -6.56
   H+              8.095e-07   8.076e-07    -6.092    -6.093    -0.001      0.00
   H2O             5.551e+01   1.000e+00     1.744    -0.000     0.000     18.85
Cl            2.000e-06
   Cl-             2.000e-06   1.995e-06    -5.699    -5.700    -0.001     15.87
H(0)          4.685e-29
   H2              2.342e-29   2.342e-29   -28.630   -28.630     0.000     28.57
K             1.000e-06
   K+              1.000e-06   9.977e-07    -6.000    -6.001    -0.001      9.39
   KOH             4.283e-15   4.283e-15   -14.368   -14.368     0.000     (0)  
Na            1.000e-06
   Na+             1.000e-06   9.977e-07    -6.000    -6.001    -0.001      0.23
   NaOH            8.059e-23   8.059e-23   -22.094   -22.094     0.000     (0)  
O(0)          1.720e-15
   O2              8.600e-16   8.600e-16   -15.066   -15.066     0.000     34.03

------------------------------Saturation indices-------------------------------

	Phase               SI   log IAP   log K(376 K,   1 atm)

	H2(g)           -25.54    -28.63   -3.09  H2
	H2O(g)            0.05     -0.00   -0.05  H2O
	Halite          -13.42    -11.70    1.72  NaCl
	O2(g)           -11.95    -15.07   -3.11  O2


Reaction step 11.

Using solution 1.	
Using temperature 1.	

-----------------------------Solution composition------------------------------

	Elements           Molality       Moles

	Cl                2.000e-06   2.000e-06
	K                 1.000e-06   1.000e-06
	Na                1.000e-06   1.000e-06

----------------------------Description of solution----------------------------

                                       pH  =   6.010      Charge balance
                                       pe  =   6.017      Adjusted to redox equilibrium
       Specific Conductance (uS/cm, 115 oC) = 2
                          Density (g/cm3)  =   0.94708
                        Activity of water  =   1.000
                           Ionic strength  =   2.980e-06
                       Mass of water (kg)  =   1.000e+00
                 Total alkalinity (eq/kg)  =   2.215e-10
                    Total carbon (mol/kg)  =   0.000e+00
                       Total CO2 (mol/kg)  =   0.000e+00
                      Temperature (deg C)  = 115.00
                           Pressure (atm)  =  1.67
                  Electrical balance (eq)  =  -2.215e-10
 Percent error, 100*(Cat-|An|)/(Cat+|An|)  =  -0.00
                               Iterations  =   7
                                  Total H  = 1.110124e+02
                                  Total O  = 5.550622e+01

----------------------------Distribution of species----------------------------

                                               Log       Log       Log    mole V
   Species          Molality    Activity  Molality  Activity     Gamma   cm3/mol

   OH-             9.803e-07   9.779e-07    -6.009    -6.010    -0.001     -7.80
   H+              9.801e-07   9.777e-07    -6.009    -6.010    -0.001      0.00
   H2O             5.551e+01   1.000e+00     1.744    -0.000     0.000     19.02
Cl            2.000e-06
   Cl-             2.000e-06   1.995e-06    -5.699    -5.700    -0.001     14.90
H(0)          6.281e-28
   H2              3.141e-28   3.141e-28   -27.503   -27.503     0.000     28.57
K             1.000e-06
   K+              1.000e-06   9.975e-07    -6.000    -6.001    -0.001      9.20
   KOH             3.538e-15   3.538e-15   -14.451   -14.451     0.000     (0)  
Na            1.000e-06
   Na+             1.000e-06   9.975e-07    -6.000    -6.001    -0.001      0.24
   NaOH            9.749e-23   9.749e-23   -22.011   -22.011     0.000     (0)  
O(0)          1.726e-15
   O2              8.629e-16   8.629e-16   -15.064   -15.064     0.000     34.45

------------------------------Saturation indices-------------------------------

	Phase               SI   log IAP   log K(388 K,   2 atm)

	H2(g)           -24.43    -27.50   -3.07  H2
	H2O(g)            0.22     -0.00   -0.22  H2O
	Halite          -13.44    -11.70    1.74  NaCl
	O2(g)           -11.96    -15.06   -3.11  O2


Reaction step 12.

Using solution 1.	
Using temperature 1.	

-----------------------------Solution composition------------------------------

	Elements           Molality       Moles

	Cl                2.000e-06   2.000e-06
	K                 1.000e-06   1.000e-06
	Na                1.000e-06   1.000e-06

----------------------------Description of solution----------------------------

                                       pH  =   5.936      Charge balance
                                       pe  =   5.710      Adjusted to redox equilibrium
       Specific Conductance (uS/cm, 126 oC) = 3
                          Density (g/cm3)  =   0.93778
                        Activity of water  =   1.000
                           Ionic strength  =   3.162e-06
                       Mass of water (kg)  =   1.000e+00
                 Total alkalinity (eq/kg)  =   2.215e-10
                    Total carbon (mol/kg)  =   0.000e+00
                       Total CO2 (mol/kg)  =   0.000e+00
                      Temperature (deg C)  = 126.50
                           Pressure (atm)  =  2.40
                  Electrical balance (eq)  =  -2.215e-10
 Percent error, 100*(Cat-|An|)/(Cat+|An|)  =  -0.00
                               Iterations  =   7
                                  Total H  = 1.110124e+02
                                  Total O  = 5.550622e+01

----------------------------Distribution of species----------------------------

                                               Log       Log       Log    mole V
   Species          Molality    Activity  Molality  Activity     Gamma   cm3/mol

   OH-             1.162e-06   1.159e-06    -5.935    -5.936    -0.001     -9.33
   H+              1.162e-06   1.159e-06    -5.935    -5.936    -0.001      0.00
   H2O             5.551e+01   1.000e+00     1.744    -0.000     0.000     19.21
Cl            2.000e-06
   Cl-             2.000e-06   1.995e-06    -5.699    -5.700    -0.001     13.71
H(0)          3.402e-27
   H2              1.701e-27   1.701e-27   -26.769   -26.769     0.000     28.56
K             1.000e-06
   K+              1.000e-06   9.974e-07    -6.000    -6.001    -0.001      8.94
   KOH             2.985e-15   2.985e-15   -14.525   -14.525     0.000     (0)  
Na            1.000e-06
   Na+             1.000e-06   9.974e-07    -6.000    -6.001    -0.001      0.22
   NaOH            1.154e-22   1.154e-22   -21.938   -21.938     0.000     (0)  
O(0)          7.867e-15
   O2              3.934e-15   3.934e-15   -14.405   -14.405     0.000     34.89

------------------------------Saturation indices-------------------------------

	Phase               SI   log IAP   log K(399 K,   2 atm)

	H2(g)           -23.73    -26.77   -3.04  H2
	H2O(g)            0.37     -0.00   -0.37  H2O
	Halite          -13.45    -11.70    1.75  NaCl
	O2(g)           -11.31    -14.41   -3.09  O2


Reaction step 13.

Using solution 1.	
Using temperature 1.	

-----------------------------Solution composition------------------------------

	Elements           Molality       Moles

	Cl                2.000e-06   2.000e-06
	K                 1.000e-06   1.000e-06
	Na                1.000e-06   1.000e-06

----------------------------Description of solution----------------------------

                                       pH  =   5.871      Charge balance
                                       pe  =   5.094      Adjusted to redox equilibrium
       Specific Conductance (uS/cm, 138 oC) = 4
                          Density (g/cm3)  =   0.92791
                        Activity of water  =   1.000
                           Ionic strength  =   3.350e-06
                       Mass of water (kg)  =   1.000e+00
                 Total alkalinity (eq/kg)  =   2.215e-10
                    Total carbon (mol/kg)  =   0.000e+00
                       Total CO2 (mol/kg)  =   0.000e+00
                      Temperature (deg C)  = 138.00
                           Pressure (atm)  =  3.37
                  Electrical balance (eq)  =  -2.215e-10
 Percent error, 100*(Cat-|An|)/(Cat+|An|)  =  -0.00
                               Iterations  =   6
                                  Total H  = 1.110124e+02
                                  Total O  = 5.550622e+01

----------------------------Distribution of species----------------------------

                                               Log       Log       Log    mole V
   Species          Molality    Activity  Molality  Activity     Gamma   cm3/mol

   OH-             1.351e-06   1.347e-06    -5.869    -5.871    -0.001    -11.18
   H+              1.350e-06   1.347e-06    -5.870    -5.871    -0.001      0.00
   H2O             5.551e+01   1.000e+00     1.744    -0.000     0.000     19.42
Cl            2.000e-06
   Cl-             2.000e-06   1.994e-06    -5.699    -5.700    -0.001     12.27
H(0)          7.337e-26
   H2              3.668e-26   3.668e-26   -25.436   -25.436     0.000     28.56
K             1.000e-06
   K+              1.000e-06   9.972e-07    -6.000    -6.001    -0.001      8.60
   KOH             2.568e-15   2.568e-15   -14.590   -14.590     0.000     (0)  
Na            1.000e-06
   Na+             1.000e-06   9.972e-07    -6.000    -6.001    -0.001      0.16
   NaOH            1.340e-22   1.340e-22   -21.873   -21.873     0.000     (0)  
O(0)          1.720e-15
   O2              8.600e-16   8.600e-16   -15.066   -15.066     0.000     35.36

------------------------------Saturation indices-------------------------------

	Phase               SI   log IAP   log K(411 K,   3 atm)

	H2(g)           -22.42    -25.44   -3.01  H2
	H2O(g)            0.52     -0.00   -0.52  H2O
	Halite          -13.47    -11.70    1.77  NaCl
	O2(g)           -12.00    -15.07   -3.07  O2


Reaction step 14.

Using solution 1.	
Using temperature 1.	

-----------------------------Solution composition------------------------------

	Elements           Molality       Moles

	Cl                2.000e-06   2.000e-06
	K                 1.000e-06   1.000e-06
	Na                1.000e-06   1.000e-06

----------------------------Description of solution----------------------------

                                       pH  =   5.813      Charge balance
                                       pe  =   4.681      Adjusted to redox equilibrium
       Specific Conductance (uS/cm, 149 oC) = 5
                          Density (g/cm3)  =   0.91748
                        Activity of water  =   1.000
                           Ionic strength  =   3.541e-06
                       Mass of water (kg)  =   1.000e+00
                 Total alkalinity (eq/kg)  =   2.215e-10
                    Total carbon (mol/kg)  =   0.000e+00
                       Total CO2 (mol/kg)  =   0.000e+00
                      Temperature (deg C)  = 149.50
                           Pressure (atm)  =  4.64
                  Electrical balance (eq)  =  -2.215e-10
 Percent error, 100*(Cat-|An|)/(Cat+|An|)  =  -0.00
                               Iterations  =   7
                                  Total H  = 1.110124e+02
                                  Total O  = 5.550622e+01

----------------------------Distribution of species----------------------------

                                               Log       Log       Log    mole V
   Species          Molality    Activity  Molality  Activity     Gamma   cm3/mol

   OH-             1.542e-06   1.537e-06    -5.812    -5.813    -0.001    -13.41
   H+              1.541e-06   1.537e-06    -5.812    -5.813    -0.001      0.00
   H2O             5.551e+01   1.000e+00     1.744    -0.000     0.000     19.64
Cl            2.000e-06
   Cl-             2.000e-06   1.994e-06    -5.699    -5.700    -0.001     10.54
H(0)          6.028e-25
   H2              3.014e-25   3.014e-25   -24.521   -24.521     0.000     28.56
K             1.000e-06
   K+              1.000e-06   9.970e-07    -6.000    -6.001    -0.001      8.18
   KOH             2.250e-15   2.250e-15   -14.648   -14.648     0.000     (0)  
Na            1.000e-06
   Na+             1.000e-06   9.970e-07    -6.000    -6.001    -0.001      0.07
   NaOH            1.527e-22   1.527e-22   -21.816   -21.816     0.000     (0)  
O(0)          2.013e-15
   O2              1.007e-15   1.007e-15   -14.997   -14.997     0.000     35.89

------------------------------Saturation indices-------------------------------

	Phase               SI   log IAP   log K(422 K,   5 atm)

	H2(g)           -21.54    -24.52   -2.98  H2
	H2O(g)            0.65     -0.00   -0.65  H2O
	Halite          -13.48    -11.70    1.78  NaCl
	O2(g)           -11.95    -15.00   -3.04  O2


Reaction step 15.

Using solution 1.	
Using temperature 1.	

-----------------------------Solution composition------------------------------

	Elements           Molality       Moles

	Cl                2.000e-06   2.000e-06
	K                 1.000e-06   1.000e-06
	Na                1.000e-06   1.000e-06

----------------------------Description of solution----------------------------

                                       pH  =   5.763      Charge balance
                                       pe  =   4.629      Adjusted to redox equilibrium
       Specific Conductance (uS/cm, 161 oC) = 6
                          Density (g/cm3)  =   0.90647
                        Activity of water  =   1.000
                           Ionic strength  =   3.730e-06
                       Mass of water (kg)  =   1.000e+00
                 Total alkalinity (eq/kg)  =   2.215e-10
                    Total carbon (mol/kg)  =   0.000e+00
                       Total CO2 (mol/kg)  =   0.000e+00
                      Temperature (deg C)  = 161.00
                           Pressure (atm)  =  6.26
                  Electrical balance (eq)  =  -2.215e-10
 Percent error, 100*(Cat-|An|)/(Cat+|An|)  =  -0.00
                               Iterations  =   7
                                  Total H  = 1.110124e+02
                                  Total O  = 5.550622e+01

----------------------------Distribution of species----------------------------

                                               Log       Log       Log    mole V
   Species          Molality    Activity  Molality  Activity     Gamma   cm3/mol

   OH-             1.730e-06   1.725e-06    -5.762    -5.763    -0.001    -16.11
   H+              1.730e-06   1.724e-06    -5.762    -5.763    -0.001      0.00
   H2O             5.551e+01   1.000e+00     1.744    -0.000     0.000     19.87
Cl            2.000e-06
   Cl-             2.000e-06   1.994e-06    -5.699    -5.700    -0.001      8.46
H(0)          9.127e-25
   H2              4.563e-25   4.563e-25   -24.341   -24.341     0.000     28.56
K             1.000e-06
   K+              1.000e-06   9.968e-07    -6.000    -6.001    -0.001      7.66
   KOH             2.004e-15   2.004e-15   -14.698   -14.698     0.000     (0)  
Na            1.000e-06
   Na+             1.000e-06   9.968e-07    -6.000    -6.001    -0.001     -0.07
   NaOH            1.710e-22   1.710e-22   -21.767   -21.767     0.000     (0)  
O(0)          5.503e-14
   O2              2.751e-14   2.751e-14   -13.560   -13.560     0.000     36.48

------------------------------Saturation indices-------------------------------

	Phase               SI   log IAP   log K(434 K,   6 atm)

	H2(g)           -21.40    -24.34   -2.94  H2
	H2O(g)            0.78     -0.00   -0.78  H2O
	Halite          -13.50    -11.70    1.79  NaCl
	O2(g)           -10.55    -13.56   -3.01  O2


Reaction step 16.

Using solution 1.	
Using temperature 1.	

-----------------------------Solution composition------------------------------

	Elements           Molality       Moles

	Cl                2.000e-06   2.000e-06
	K                 1.000e-06   1.000e-06
	Na                1.000e-06   1.000e-06

----------------------------Description of solution----------------------------

                                       pH  =   5.720      Charge balance
                                       pe  =   4.670      Adjusted to redox equilibrium
       Specific Conductance (uS/cm, 172 oC) = 7
                          Density (g/cm3)  =   0.89488
                        Activity of water  =   1.000
                           Ionic strength  =   3.911e-06
                       Mass of water (kg)  =   1.000e+00
                 Total alkalinity (eq/kg)  =   2.215e-10
                    Total carbon (mol/kg)  =   0.000e+00
                       Total CO2 (mol/kg)  =   0.000e+00
                      Temperature (deg C)  = 172.50
                           Pressure (atm)  =  8.31
                  Electrical balance (eq)  =  -2.215e-10
 Percent error, 100*(Cat-|An|)/(Cat+|An|)  =  -0.00
                               Iterations  =   7
                                  Total H  = 1.110124e+02
                                  Total O  = 5.550622e+01

----------------------------Distribution of species----------------------------

                                               Log       Log       Log    mole V
   Species          Molality    Activity  Molality  Activity     Gamma   cm3/mol

   OH-             1.911e-06   1.905e-06    -5.719    -5.720    -0.001    -19.37
   H+              1.911e-06   1.905e-06    -5.719    -5.720    -0.001      0.00
   H2O             5.551e+01   1.000e+00     1.744    -0.000     0.000     20.13
Cl            2.000e-06
   Cl-             2.000e-06   1.993e-06    -5.699    -5.700    -0.001      5.94
H(0)          8.725e-25
   H2              4.362e-25   4.362e-25   -24.360   -24.360     0.000     28.55
K             1.000e-06
   K+              1.000e-06   9.966e-07    -6.000    -6.001    -0.001      7.02
   KOH             1.814e-15   1.814e-15   -14.741   -14.741     0.000     (0)  
Na            1.000e-06
   Na+             1.000e-06   9.966e-07    -6.000    -6.001    -0.001     -0.25
   NaOH            1.884e-22   1.884e-22   -21.725   -21.725     0.000     (0)  
O(0)          3.045e-12
   O2              1.523e-12   1.523e-12   -11.817   -11.817     0.000     37.15

------------------------------Saturation indices-------------------------------

	Phase               SI   log IAP   log K(445 K,   8 atm)

	H2(g)           -21.45    -24.36   -2.91  H2
	H2O(g)            0.90     -0.00   -0.90  H2O
	Halite          -13.51    -11.70    1.81  NaCl
	O2(g)            -8.84    -11.82   -2.98  O2


Reaction step 17.

Using solution 1.	
Using temperature 1.	

-----------------------------Solution composition------------------------------

	Elements           Molality       Moles

	Cl                2.000e-06   2.000e-06
	K                 1.000e-06   1.000e-06
	Na                1.000e-06   1.000e-06

----------------------------Description of solution----------------------------

                                       pH  =   5.684      Charge balance
                                       pe  =   4.707      Adjusted to redox equilibrium
       Specific Conductance (uS/cm, 184 oC) = 8
                          Density (g/cm3)  =   0.88269
                        Activity of water  =   1.000
                           Ionic strength  =   4.080e-06
                       Mass of water (kg)  =   1.000e+00
                 Total alkalinity (eq/kg)  =   2.215e-10
                    Total carbon (mol/kg)  =   0.000e+00
                       Total CO2 (mol/kg)  =   0.000e+00
                      Temperature (deg C)  = 184.00
                           Pressure (atm)  = 10.86
                  Electrical balance (eq)  =  -2.215e-10
 Percent error, 100*(Cat-|An|)/(Cat+|An|)  =  -0.00
                               Iterations  =   7
                                  Total H  = 1.110124e+02
                                  Total O  = 5.550622e+01

----------------------------Distribution of species----------------------------

                                               Log       Log       Log    mole V
   Species          Molality    Activity  Molality  Activity     Gamma   cm3/mol

   OH-             2.080e-06   2.073e-06    -5.682    -5.683    -0.002    -23.33
   H+              2.080e-06   2.072e-06    -5.682    -5.684    -0.002      0.00
   H2O             5.551e+01   1.000e+00     1.744    -0.000     0.000     20.41
Cl            2.000e-06
   Cl-             2.000e-06   1.993e-06    -5.699    -5.701    -0.002      2.88
H(0)          8.286e-25
   H2              4.143e-25   4.143e-25   -24.383   -24.383     0.000     28.55
K             1.000e-06
   K+              1.000e-06   9.964e-07    -6.000    -6.002    -0.002      6.23
   KOH             1.667e-15   1.667e-15   -14.778   -14.778     0.000     (0)  
Na            1.000e-06
   Na+             1.000e-06   9.964e-07    -6.000    -6.002    -0.002     -0.49
   NaOH            2.042e-22   2.042e-22   -21.690   -21.690     0.000     (0)  
O(0)          1.401e-10
   O2              7.003e-11   7.003e-11   -10.155   -10.155     0.000     37.93

------------------------------Saturation indices-------------------------------

	Phase               SI   log IAP   log K(457 K,  11 atm)

	H2(g)           -21.52    -24.38   -2.87  H2
	H2O(g)            1.01     -0.00   -1.01  H2O
	Halite          -13.52    -11.70    1.82  NaCl
	O2(g)            -7.22    -10.15   -2.94  O2


Reaction step 18.

Using solution 1.	
Using temperature 1.	

-----------------------------Solution composition------------------------------

	Elements           Molality       Moles

	Cl                2.000e-06   2.000e-06
	K                 1.000e-06   1.000e-06
	Na                1.000e-06   1.000e-06

----------------------------Description of solution----------------------------

                                       pH  =   5.653      Charge balance
                                       pe  =   4.737      Adjusted to redox equilibrium
       Specific Conductance (uS/cm, 195 oC) = 9
                          Density (g/cm3)  =   0.86987
                        Activity of water  =   1.000
                           Ionic strength  =   4.232e-06
                       Mass of water (kg)  =   1.000e+00
                 Total alkalinity (eq/kg)  =   2.215e-10
                    Total carbon (mol/kg)  =   0.000e+00
                       Total CO2 (mol/kg)  =   0.000e+00
                      Temperature (deg C)  = 195.50
                           Pressure (atm)  = 13.98
                  Electrical balance (eq)  =  -2.215e-10
 Percent error, 100*(Cat-|An|)/(Cat+|An|)  =  -0.00
                               Iterations  =   7
                                  Total H  = 1.110124e+02
                                  Total O  = 5.550622e+01

----------------------------Distribution of species----------------------------

                                               Log       Log       Log    mole V
   Species          Molality    Activity  Molality  Activity     Gamma   cm3/mol

   OH-             2.232e-06   2.223e-06    -5.651    -5.653    -0.002    -28.15
   H+              2.232e-06   2.223e-06    -5.651    -5.653    -0.002      0.00
   H2O             5.551e+01   1.000e+00     1.744    -0.000     0.000     20.71
Cl            2.000e-06
   Cl-             2.000e-06   1.992e-06    -5.699    -5.701    -0.002     -0.84
H(0)          7.885e-25
   H2              3.942e-25   3.942e-25   -24.404   -24.404     0.000     28.55
K             1.000e-06
   K+              1.000e-06   9.962e-07    -6.000    -6.002    -0.002      5.26
   KOH             1.554e-15   1.554e-15   -14.809   -14.809     0.000     (0)  
Na            1.000e-06
   Na+             1.000e-06   9.962e-07    -6.000    -6.002    -0.002     -0.80
   NaOH            2.179e-22   2.179e-22   -21.662   -21.662     0.000     (0)  
O(0)          5.340e-09
   O2              2.670e-09   2.670e-09    -8.573    -8.573     0.000     38.85

------------------------------Saturation indices-------------------------------

	Phase               SI   log IAP   log K(468 K,  14 atm)

	H2(g)           -21.58    -24.40   -2.82  H2
	H2O(g)            1.12     -0.00   -1.12  H2O
	Halite          -13.53    -11.70    1.83  NaCl
	O2(g)            -5.68     -8.57   -2.89  O2


Reaction step 19.

Using solution 1.	
Using temperature 1.	

-----------------------------Solution composition------------------------------

	Elements           Molality       Moles

	Cl                2.000e-06   2.000e-06
	K                 1.000e-06   1.000e-06
	Na                1.000e-06   1.000e-06

----------------------------Description of solution----------------------------

                                       pH  =   5.628      Charge balance
                                       pe  =   4.328      Adjusted to redox equilibrium
       Specific Conductance (uS/cm, 207 oC) = 11
                          Density (g/cm3)  =   0.85637
                        Activity of water  =   1.000
                           Ionic strength  =   4.363e-06
                       Mass of water (kg)  =   1.000e+00
                 Total alkalinity (eq/kg)  =   2.215e-10
                    Total carbon (mol/kg)  =   0.000e+00
                       Total CO2 (mol/kg)  =   0.000e+00
                      Temperature (deg C)  = 207.00
                           Pressure (atm)  = 17.76
                  Electrical balance (eq)  =  -2.215e-10
 Percent error, 100*(Cat-|An|)/(Cat+|An|)  =  -0.00
                               Iterations  =  11
                                  Total H  = 1.110124e+02
                                  Total O  = 5.550622e+01

----------------------------Distribution of species----------------------------

                                               Log       Log       Log    mole V
   Species          Molality    Activity  Molality  Activity     Gamma   cm3/mol

   OH-             2.363e-06   2.353e-06    -5.627    -5.628    -0.002    -34.08
   H+              2.363e-06   2.353e-06    -5.627    -5.628    -0.002      0.00
   H2O             5.551e+01   1.000e+00     1.744    -0.000     0.000     21.04
Cl            2.000e-06
   Cl-             2.000e-06   1.992e-06    -5.699    -5.701    -0.002     -5.40
H(0)          5.554e-24
   H2              2.777e-24   2.777e-24   -23.556   -23.556     0.000     28.55
K             1.000e-06
   K+              1.000e-06   9.960e-07    -6.000    -6.002    -0.002      4.06
   KOH             1.468e-15   1.468e-15   -14.833   -14.833     0.000     (0)  
Na            1.000e-06
   Na+             1.000e-06   9.960e-07    -6.000    -6.002    -0.002     -1.19
   NaOH            2.290e-22   2.290e-22   -21.640   -21.640     0.000     (0)  
O(0)          3.132e-09
   O2              1.566e-09   1.566e-09    -8.805    -8.805     0.000     39.95

------------------------------Saturation indices-------------------------------

	Phase               SI   log IAP   log K(480 K,  18 atm)

	H2(g)           -20.77    -23.56   -2.78  H2
	H2O(g)            1.22     -0.00   -1.22  H2O
	Halite          -13.55    -11.70    1.84  NaCl
	O2(g)            -5.96     -8.81   -2.85  O2


Reaction step 20.

Using solution 1.	
Using temperature 1.	

-----------------------------Solution composition------------------------------

	Elements           Molality       Moles

	Cl                2.000e-06   2.000e-06
	K                 1.000e-06   1.000e-06
	Na                1.000e-06   1.000e-06

----------------------------Description of solution----------------------------

                                       pH  =   5.609      Charge balance
                                       pe  =   4.021      Adjusted to redox equilibrium
       Specific Conductance (uS/cm, 218 oC) = 12
                          Density (g/cm3)  =   0.84216
                        Activity of water  =   1.000
                           Ionic strength  =   4.470e-06
                       Mass of water (kg)  =   1.000e+00
                 Total alkalinity (eq/kg)  =   2.215e-10
                    Total carbon (mol/kg)  =   0.000e+00
                       Total CO2 (mol/kg)  =   0.000e+00
                      Temperature (deg C)  = 218.50
                           Pressure (atm)  = 22.29
                  Electrical balance (eq)  =  -2.215e-10
 Percent error, 100*(Cat-|An|)/(Cat+|An|)  =  -0.00
                               Iterations  =  14
                                  Total H  = 1.110124e+02
                                  Total O  = 5.550622e+01

----------------------------Distribution of species----------------------------

                                               Log       Log       Log    mole V
   Species          Molality    Activity  Molality  Activity     Gamma   cm3/mol

   OH-             2.470e-06   2.460e-06    -5.607    -5.609    -0.002    -41.41
   H+              2.470e-06   2.460e-06    -5.607    -5.609    -0.002      0.00
   H2O             5.551e+01   1.000e+00     1.744    -0.000     0.000     21.39
Cl            2.000e-06
   Cl-             2.000e-06   1.992e-06    -5.699    -5.701    -0.002    -11.05
H(0)          2.377e-23
   H2              1.189e-23   1.189e-23   -22.925   -22.925     0.000     28.54
K             1.000e-06
   K+              1.000e-06   9.958e-07    -6.000    -6.002    -0.002      2.56
   KOH             1.404e-15   1.404e-15   -14.853   -14.853     0.000     (0)  
Na            1.000e-06
   Na+             1.000e-06   9.958e-07    -6.000    -6.002    -0.002     -1.69
   NaOH            2.370e-22   2.370e-22   -21.625   -21.625     0.000     (0)  
O(0)          4.245e-09
   O2              2.122e-09   2.122e-09    -8.673    -8.673     0.000     41.29

------------------------------Saturation indices-------------------------------

	Phase               SI   log IAP   log K(491 K,  22 atm)

	H2(g)           -20.19    -22.92   -2.74  H2
	H2O(g)            1.31     -0.00   -1.31  H2O
	Halite          -13.56    -11.70    1.86  NaCl
	O2(g)            -5.87     -8.67   -2.80  O2


Reaction step 21.

Using solution 1.	
Using temperature 1.	

-----------------------------Solution composition------------------------------

	Elements           Molality       Moles

	Cl                2.000e-06   2.000e-06
	K                 1.000e-06   1.000e-06
	Na                1.000e-06   1.000e-06

----------------------------Description of solution----------------------------

                                       pH  =   5.595      Charge balance
                                       pe  =   3.710      Adjusted to redox equilibrium
       Specific Conductance (uS/cm, 230 oC) = 13
                          Density (g/cm3)  =   0.82717
                        Activity of water  =   1.000
                           Ionic strength  =   4.552e-06
                       Mass of water (kg)  =   1.000e+00
                 Total alkalinity (eq/kg)  =   2.215e-10
                    Total carbon (mol/kg)  =   0.000e+00
                       Total CO2 (mol/kg)  =   0.000e+00
                      Temperature (deg C)  = 230.00
                           Pressure (atm)  = 27.65
                  Electrical balance (eq)  =  -2.215e-10
 Percent error, 100*(Cat-|An|)/(Cat+|An|)  =  -0.00
                               Iterations  =  17
                                  Total H  = 1.110124e+02
                                  Total O  = 5.550622e+01

----------------------------Distribution of species----------------------------

                                               Log       Log       Log    mole V
   Species          Molality    Activity  Molality  Activity     Gamma   cm3/mol

   OH-             2.552e-06   2.541e-06    -5.593    -5.595    -0.002    -50.59
   H+              2.552e-06   2.541e-06    -5.593    -5.595    -0.002      0.00
   H2O             5.551e+01   1.000e+00     1.744    -0.000     0.000     21.78
Cl            2.000e-06
   Cl-             2.000e-06   1.991e-06    -5.699    -5.701    -0.002    -18.11
H(0)          1.019e-22
   H2              5.095e-23   5.095e-23   -22.293   -22.293     0.000     28.54
K             1.000e-06
   K+              1.000e-06   9.956e-07    -6.000    -6.002    -0.002      0.68
   KOH             1.359e-15   1.359e-15   -14.867   -14.867     0.000     (0)  
Na            1.000e-06
   Na+             1.000e-06   9.956e-07    -6.000    -6.002    -0.002     -2.32
   NaOH            2.414e-22   2.414e-22   -21.617   -21.617     0.000     (0)  
O(0)          4.946e-09
   O2              2.473e-09   2.473e-09    -8.607    -8.607     0.000     42.94

------------------------------Saturation indices-------------------------------

	Phase               SI   log IAP   log K(503 K,  28 atm)

	H2(g)           -19.60    -22.29   -2.69  H2
	H2O(g)            1.39     -0.00   -1.39  H2O
	Halite          -13.57    -11.70    1.87  NaCl
	O2(g)            -5.86     -8.61   -2.75  O2


------------------
End of simulation.
------------------

------------------------------------
Reading input data for simulation 2.
------------------------------------

	SOLUTION_SPECIES
	Na+ = Na+
	millero -3.46 0.1092 -0.000768 2.698 -0.106 0.001651
	K+ = K+
	millero 7.26 0.0892 -0.000736 2.722 -0.101 0.00151
	Cl- = Cl-
	millero 16.37 0.0896 -0.001264 -1.494 0.034 -0.000621
	USE solution 1
	USE reaction_temperature 1
	USER_GRAPH 1
	-headings -millero
	 20 mV = Vm("Na+") + Vm("Cl-")
	 30 plot_xy tk, mV, color = Red, symbol = None, line_width = 1
	 40 mV = Vm("K+") + Vm("Cl-")
	 50 plot_xy tk, mV, color = Green, symbol = None, line_width = 1
	END
-----------------------------------------
Beginning of batch-reaction calculations.
-----------------------------------------

Reaction step 1.

Using solution 1.	
Using temperature 1.	

-----------------------------Solution composition------------------------------

	Elements           Molality       Moles

	Cl                2.000e-06   2.000e-06
	K                 1.000e-06   1.000e-06
	Na                1.000e-06   1.000e-06

----------------------------Description of solution----------------------------

                                       pH  =   7.481      Charge balance
                                       pe  =  12.533      Adjusted to redox equilibrium
       Specific Conductance (uS/cm, 0 oC) = 0
                          Density (g/cm3)  =   0.99984
                        Activity of water  =   1.000
                           Ionic strength  =   2.033e-06
                       Mass of water (kg)  =   1.000e+00
                 Total alkalinity (eq/kg)  =   2.215e-10
                    Total carbon (mol/kg)  =   0.000e+00
                       Total CO2 (mol/kg)  =   0.000e+00
                      Temperature (deg C)  =   0.00
                  Electrical balance (eq)  =  -2.215e-10
 Percent error, 100*(Cat-|An|)/(Cat+|An|)  =  -0.01
                               Iterations  =  12
                                  Total H  = 1.110124e+02
                                  Total O  = 5.550622e+01

----------------------------Distribution of species----------------------------

                                               Log       Log       Log    mole V
   Species          Molality    Activity  Molality  Activity     Gamma   cm3/mol

   OH-             3.329e-08   3.323e-08    -7.478    -7.478    -0.001     -6.62
   H+              3.306e-08   3.301e-08    -7.481    -7.481    -0.001      0.00
   H2O             5.551e+01   1.000e+00     1.744    -0.000     0.000     18.02
Cl            2.000e-06
   Cl-             2.000e-06   1.997e-06    -5.699    -5.700    -0.001     16.37
H(0)          0.000e+00
   H2              0.000e+00   0.000e+00   -43.061   -43.061     0.000     28.65
K             1.000e-06
   K+              1.000e-06   9.984e-07    -6.000    -6.001    -0.001      7.26
   KOH             1.049e-13   1.049e-13   -12.979   -12.979     0.000     (0)  
Na            1.000e-06
   Na+             1.000e-06   9.984e-07    -6.000    -6.001    -0.001     -3.46
   NaOH            3.318e-24   3.318e-24   -23.479   -23.479     0.000     (0)  
O(0)          1.720e-15
   O2              8.600e-16   8.600e-16   -15.065   -15.065     0.000     27.49

------------------------------Saturation indices-------------------------------

	Phase               SI   log IAP   log K(273 K,   1 atm)

	H2(g)           -40.05    -43.06   -3.01  H2
	H2O(g)           -2.21     -0.00    2.21  H2O
	Halite          -13.22    -11.70    1.52  NaCl
	O2(g)           -12.41    -15.07   -2.66  O2


Reaction step 2.

Using solution 1.	
Using temperature 1.	

-----------------------------Solution composition------------------------------

	Elements           Molality       Moles

	Cl                2.000e-06   2.000e-06
	K                 1.000e-06   1.000e-06
	Na                1.000e-06   1.000e-06

----------------------------Description of solution----------------------------

                                       pH  =   7.243      Charge balance
                                       pe  =  11.682      Adjusted to redox equilibrium
       Specific Conductance (uS/cm, 11 oC) = 0
                          Density (g/cm3)  =   0.99955
                        Activity of water  =   1.000
                           Ionic strength  =   2.057e-06
                       Mass of water (kg)  =   1.000e+00
                 Total alkalinity (eq/kg)  =   2.215e-10
                    Total carbon (mol/kg)  =   0.000e+00
                       Total CO2 (mol/kg)  =   0.000e+00
                      Temperature (deg C)  =  11.50
                  Electrical balance (eq)  =  -2.215e-10
 Percent error, 100*(Cat-|An|)/(Cat+|An|)  =  -0.01
                               Iterations  =  11
                                  Total H  = 1.110124e+02
                                  Total O  = 5.550622e+01

----------------------------Distribution of species----------------------------

                                               Log       Log       Log    mole V
   Species          Molality    Activity  Molality  Activity     Gamma   cm3/mol

   OH-             5.740e-08   5.731e-08    -7.241    -7.242    -0.001     -5.06
   H+              5.718e-08   5.709e-08    -7.243    -7.243    -0.001      0.00
   H2O             5.551e+01   1.000e+00     1.744    -0.000     0.000     18.02
Cl            2.000e-06
   Cl-             2.000e-06   1.997e-06    -5.699    -5.700    -0.001     17.23
H(0)          0.000e+00
   H2              0.000e+00   0.000e+00   -40.939   -40.939     0.000     28.62
K             1.000e-06
   K+              1.000e-06   9.984e-07    -6.000    -6.001    -0.001      8.19
   KOH             6.064e-14   6.064e-14   -13.217   -13.217     0.000     (0)  
Na            1.000e-06
   Na+             1.000e-06   9.984e-07    -6.000    -6.001    -0.001     -2.30
   NaOH            5.722e-24   5.722e-24   -23.242   -23.242     0.000     (0)  
O(0)          1.720e-15
   O2              8.600e-16   8.600e-16   -15.066   -15.066     0.000     29.12

------------------------------Saturation indices-------------------------------

	Phase               SI   log IAP   log K(284 K,   1 atm)

	H2(g)           -37.88    -40.94   -3.06  H2
	H2O(g)           -1.87     -0.00    1.87  H2O
	Halite          -13.25    -11.70    1.55  NaCl
	O2(g)           -12.29    -15.07   -2.78  O2


Reaction step 3.

Using solution 1.	
Using temperature 1.	

-----------------------------Solution composition------------------------------

	Elements           Molality       Moles

	Cl                2.000e-06   2.000e-06
	K                 1.000e-06   1.000e-06
	Na                1.000e-06   1.000e-06

----------------------------Description of solution----------------------------

                                       pH  =   7.034      Charge balance
                                       pe  =  11.379      Adjusted to redox equilibrium
       Specific Conductance (uS/cm, 23 oC) = 0
                          Density (g/cm3)  =   0.99754
                        Activity of water  =   1.000
                           Ionic strength  =   2.093e-06
                       Mass of water (kg)  =   1.000e+00
                 Total alkalinity (eq/kg)  =   2.215e-10
                    Total carbon (mol/kg)  =   0.000e+00
                       Total CO2 (mol/kg)  =   0.000e+00
                      Temperature (deg C)  =  23.00
                  Electrical balance (eq)  =  -2.215e-10
 Percent error, 100*(Cat-|An|)/(Cat+|An|)  =  -0.01
                               Iterations  =  10
                                  Total H  = 1.110124e+02
                                  Total O  = 5.550622e+01

----------------------------Distribution of species----------------------------

                                               Log       Log       Log    mole V
   Species          Molality    Activity  Molality  Activity     Gamma   cm3/mol

   OH-             9.287e-08   9.272e-08    -7.032    -7.033    -0.001     -4.21
   H+              9.265e-08   9.250e-08    -7.033    -7.034    -0.001      0.00
   H2O             5.551e+01   1.000e+00     1.744    -0.000     0.000     18.06
Cl            2.000e-06
   Cl-             2.000e-06   1.997e-06    -5.699    -5.700    -0.001     17.76
H(0)          2.160e-40
   H2              1.080e-40   1.080e-40   -39.967   -39.967     0.000     28.61
K             1.000e-06
   K+              1.000e-06   9.983e-07    -6.000    -6.001    -0.001      8.92
   KOH             3.742e-14   3.742e-14   -13.427   -13.427     0.000     (0)  
Na            1.000e-06
   Na+             1.000e-06   9.983e-07    -6.000    -6.001    -0.001     -1.35
   NaOH            9.256e-24   9.256e-24   -23.034   -23.034     0.000     (0)  
O(0)          1.601e-13
   O2              8.003e-14   8.003e-14   -13.097   -13.097     0.000     30.24

------------------------------Saturation indices-------------------------------

	Phase               SI   log IAP   log K(296 K,   1 atm)

	H2(g)           -36.87    -39.97   -3.10  H2
	H2O(g)           -1.55     -0.00    1.55  H2O
	Halite          -13.28    -11.70    1.58  NaCl
	O2(g)           -10.22    -13.10   -2.88  O2


Reaction step 4.

Using solution 1.	
Using temperature 1.	

-----------------------------Solution composition------------------------------

	Elements           Molality       Moles

	Cl                2.000e-06   2.000e-06
	K                 1.000e-06   1.000e-06
	Na                1.000e-06   1.000e-06

----------------------------Description of solution----------------------------

                                       pH  =   6.848      Charge balance
                                       pe  =  10.369      Adjusted to redox equilibrium
       Specific Conductance (uS/cm, 34 oC) = 0
                          Density (g/cm3)  =   0.99420
                        Activity of water  =   1.000
                           Ionic strength  =   2.142e-06
                       Mass of water (kg)  =   1.000e+00
                 Total alkalinity (eq/kg)  =   2.215e-10
                    Total carbon (mol/kg)  =   0.000e+00
                       Total CO2 (mol/kg)  =   0.000e+00
                      Temperature (deg C)  =  34.50
                  Electrical balance (eq)  =  -2.215e-10
 Percent error, 100*(Cat-|An|)/(Cat+|An|)  =  -0.01
                               Iterations  =   9
                                  Total H  = 1.110124e+02
                                  Total O  = 5.550622e+01

----------------------------Distribution of species----------------------------

                                               Log       Log       Log    mole V
   Species          Molality    Activity  Molality  Activity     Gamma   cm3/mol

   OH-             1.422e-07   1.420e-07    -6.847    -6.848    -0.001     -3.79
   H+              1.420e-07   1.418e-07    -6.848    -6.848    -0.001      0.00
   H2O             5.551e+01   1.000e+00     1.744    -0.000     0.000     18.12
Cl            2.000e-06
   Cl-             2.000e-06   1.997e-06    -5.699    -5.700    -0.001     17.96
H(0)          4.736e-38
   H2              2.368e-38   2.368e-38   -37.626   -37.626     0.000     28.60
K             1.000e-06
   K+              1.000e-06   9.983e-07    -6.000    -6.001    -0.001      9.46
   KOH             2.442e-14   2.442e-14   -13.612   -13.612     0.000     (0)  
Na            1.000e-06
   Na+             1.000e-06   9.983e-07    -6.000    -6.001    -0.001     -0.61
   NaOH            1.417e-23   1.417e-23   -22.849   -22.849     0.000     (0)  
O(0)          1.391e-14
   O2              6.957e-15   6.957e-15   -14.158   -14.158     0.000     31.07

------------------------------Saturation indices-------------------------------

	Phase               SI   log IAP   log K(307 K,   1 atm)

	H2(g)           -34.51    -37.63   -3.12  H2
	H2O(g)           -1.27     -0.00    1.27  H2O
	Halite          -13.30    -11.70    1.60  NaCl
	O2(g)           -11.20    -14.16   -2.95  O2


Reaction step 5.

Using solution 1.	
Using temperature 1.	

-----------------------------Solution composition------------------------------

	Elements           Molality       Moles

	Cl                2.000e-06   2.000e-06
	K                 1.000e-06   1.000e-06
	Na                1.000e-06   1.000e-06

----------------------------Description of solution----------------------------

                                       pH  =   6.684      Charge balance
                                       pe  =   9.444      Adjusted to redox equilibrium
       Specific Conductance (uS/cm, 46 oC) = 0
                          Density (g/cm3)  =   0.98979
                        Activity of water  =   1.000
                           Ionic strength  =   2.208e-06
                       Mass of water (kg)  =   1.000e+00
                 Total alkalinity (eq/kg)  =   2.215e-10
                    Total carbon (mol/kg)  =   0.000e+00
                       Total CO2 (mol/kg)  =   0.000e+00
                      Temperature (deg C)  =  46.00
                  Electrical balance (eq)  =  -2.215e-10
 Percent error, 100*(Cat-|An|)/(Cat+|An|)  =  -0.01
                               Iterations  =   9
                                  Total H  = 1.110124e+02
                                  Total O  = 5.550622e+01

----------------------------Distribution of species----------------------------

                                               Log       Log       Log    mole V
   Species          Molality    Activity  Molality  Activity     Gamma   cm3/mol

   OH-             2.077e-07   2.073e-07    -6.683    -6.683    -0.001     -3.69
   H+              2.074e-07   2.071e-07    -6.683    -6.684    -0.001      0.00
   H2O             5.551e+01   1.000e+00     1.744    -0.000     0.000     18.20
Cl            2.000e-06
   Cl-             2.000e-06   1.996e-06    -5.699    -5.700    -0.001     17.82
H(0)          6.448e-36
   H2              3.224e-36   3.224e-36   -35.492   -35.492     0.000     28.59
K             1.000e-06
   K+              1.000e-06   9.982e-07    -6.000    -6.001    -0.001      9.81
   KOH             1.671e-14   1.671e-14   -13.777   -13.777     0.000     (0)  
Na            1.000e-06
   Na+             1.000e-06   9.982e-07    -6.000    -6.001    -0.001     -0.06
   NaOH            2.069e-23   2.069e-23   -22.684   -22.684     0.000     (0)  
O(0)          1.720e-15
   O2              8.600e-16   8.600e-16   -15.066   -15.066     0.000     31.72

------------------------------Saturation indices-------------------------------

	Phase               SI   log IAP   log K(319 K,   1 atm)

	H2(g)           -32.36    -35.49   -3.13  H2
	H2O(g)           -1.00     -0.00    1.00  H2O
	Halite          -13.33    -11.70    1.63  NaCl
	O2(g)           -12.05    -15.07   -3.01  O2


Reaction step 6.

Using solution 1.	
Using temperature 1.	

-----------------------------Solution composition------------------------------

	Elements           Molality       Moles

	Cl                2.000e-06   2.000e-06
	K                 1.000e-06   1.000e-06
	Na                1.000e-06   1.000e-06

----------------------------Description of solution----------------------------

                                       pH  =   6.537      Charge balance
                                       pe  =   9.139      Adjusted to redox equilibrium
       Specific Conductance (uS/cm, 57 oC) = 0
                          Density (g/cm3)  =   0.98446
                        Activity of water  =   1.000
                           Ionic strength  =   2.291e-06
                       Mass of water (kg)  =   1.000e+00
                 Total alkalinity (eq/kg)  =   2.215e-10
                    Total carbon (mol/kg)  =   0.000e+00
                       Total CO2 (mol/kg)  =   0.000e+00
                      Temperature (deg C)  =  57.50
                  Electrical balance (eq)  =  -2.215e-10
 Percent error, 100*(Cat-|An|)/(Cat+|An|)  =  -0.00
                               Iterations  =   8
                                  Total H  = 1.110124e+02
[...]

                                       pH  =   5.763      Charge balance
                                       pe  =   4.629      Adjusted to redox equilibrium
       Specific Conductance (uS/cm, 161 oC) = 5
                          Density (g/cm3)  =   0.90647
                        Activity of water  =   1.000
                           Ionic strength  =   3.730e-06
                       Mass of water (kg)  =   1.000e+00
                 Total alkalinity (eq/kg)  =   2.215e-10
                    Total carbon (mol/kg)  =   0.000e+00
                       Total CO2 (mol/kg)  =   0.000e+00
                      Temperature (deg C)  = 161.00
                           Pressure (atm)  =  6.26
                  Electrical balance (eq)  =  -2.215e-10
 Percent error, 100*(Cat-|An|)/(Cat+|An|)  =  -0.00
                               Iterations  =   7
                                  Total H  = 1.110124e+02
                                  Total O  = 5.550622e+01

----------------------------Distribution of species----------------------------

                                               Log       Log       Log    mole V
   Species          Molality    Activity  Molality  Activity     Gamma   cm3/mol

   OH-             1.730e-06   1.725e-06    -5.762    -5.763    -0.001    -16.11
   H+              1.730e-06   1.724e-06    -5.762    -5.763    -0.001      0.00
   H2O             5.551e+01   1.000e+00     1.744    -0.000     0.000     19.87
Cl            2.000e-06
   Cl-             2.000e-06   1.994e-06    -5.699    -5.700    -0.001     -1.96
H(0)          9.127e-25
   H2              4.563e-25   4.563e-25   -24.341   -24.341     0.000     28.56
K             1.000e-06
   K+              1.000e-06   9.968e-07    -6.000    -6.001    -0.001      2.55
   KOH             2.004e-15   2.004e-15   -14.698   -14.698     0.000     (0)  
Na            1.000e-06
   Na+             1.000e-06   9.968e-07    -6.000    -6.001    -0.001     -5.78
   NaOH            1.714e-22   1.714e-22   -21.766   -21.766     0.000     (0)  
O(0)          5.503e-14
   O2              2.751e-14   2.751e-14   -13.560   -13.560     0.000     36.48

------------------------------Saturation indices-------------------------------

	Phase               SI   log IAP   log K(434 K,   6 atm)

	H2(g)           -21.40    -24.34   -2.94  H2
	H2O(g)            0.78     -0.00   -0.78  H2O
	Halite          -13.50    -11.70    1.80  NaCl
	O2(g)           -10.55    -13.56   -3.01  O2


Reaction step 16.

Using solution 1.	
Using temperature 1.	

-----------------------------Solution composition------------------------------

	Elements           Molality       Moles

	Cl                2.000e-06   2.000e-06
	K                 1.000e-06   1.000e-06
	Na                1.000e-06   1.000e-06

----------------------------Description of solution----------------------------

                                       pH  =   5.720      Charge balance
                                       pe  =   4.670      Adjusted to redox equilibrium
       Specific Conductance (uS/cm, 172 oC) = 6
                          Density (g/cm3)  =   0.89488
                        Activity of water  =   1.000
                           Ionic strength  =   3.911e-06
                       Mass of water (kg)  =   1.000e+00
                 Total alkalinity (eq/kg)  =   2.215e-10
                    Total carbon (mol/kg)  =   0.000e+00
                       Total CO2 (mol/kg)  =   0.000e+00
                      Temperature (deg C)  = 172.50
                           Pressure (atm)  =  8.31
                  Electrical balance (eq)  =  -2.215e-10
 Percent error, 100*(Cat-|An|)/(Cat+|An|)  =  -0.00
                               Iterations  =   7
                                  Total H  = 1.110124e+02
                                  Total O  = 5.550622e+01

----------------------------Distribution of species----------------------------

                                               Log       Log       Log    mole V
   Species          Molality    Activity  Molality  Activity     Gamma   cm3/mol

   OH-             1.911e-06   1.905e-06    -5.719    -5.720    -0.001    -19.37
   H+              1.911e-06   1.905e-06    -5.719    -5.720    -0.001      0.00
   H2O             5.551e+01   1.000e+00     1.744    -0.000     0.000     20.13
Cl            2.000e-06
   Cl-             2.000e-06   1.993e-06    -5.699    -5.700    -0.001     -5.78
H(0)          8.725e-25
   H2              4.362e-25   4.362e-25   -24.360   -24.360     0.000     28.55
K             1.000e-06
   K+              1.000e-06   9.966e-07    -6.000    -6.001    -0.001      0.76
   KOH             1.814e-15   1.814e-15   -14.741   -14.741     0.000     (0)  
Na            1.000e-06
   Na+             1.000e-06   9.966e-07    -6.000    -6.001    -0.001     -7.47
   NaOH            1.888e-22   1.888e-22   -21.724   -21.724     0.000     (0)  
O(0)          3.045e-12
   O2              1.523e-12   1.523e-12   -11.817   -11.817     0.000     37.15

------------------------------Saturation indices-------------------------------

	Phase               SI   log IAP   log K(445 K,   8 atm)

	H2(g)           -21.45    -24.36   -2.91  H2
	H2O(g)            0.90     -0.00   -0.90  H2O
	Halite          -13.51    -11.70    1.81  NaCl
	O2(g)            -8.84    -11.82   -2.98  O2


Reaction step 17.

Using solution 1.	
Using temperature 1.	

-----------------------------Solution composition------------------------------

	Elements           Molality       Moles

	Cl                2.000e-06   2.000e-06
	K                 1.000e-06   1.000e-06
	Na                1.000e-06   1.000e-06

----------------------------Description of solution----------------------------

                                       pH  =   5.684      Charge balance
                                       pe  =   4.707      Adjusted to redox equilibrium
       Specific Conductance (uS/cm, 184 oC) = 7
                          Density (g/cm3)  =   0.88269
                        Activity of water  =   1.000
                           Ionic strength  =   4.080e-06
                       Mass of water (kg)  =   1.000e+00
                 Total alkalinity (eq/kg)  =   2.215e-10
                    Total carbon (mol/kg)  =   0.000e+00
                       Total CO2 (mol/kg)  =   0.000e+00
                      Temperature (deg C)  = 184.00
                           Pressure (atm)  = 10.86
                  Electrical balance (eq)  =  -2.215e-10
 Percent error, 100*(Cat-|An|)/(Cat+|An|)  =  -0.00
                               Iterations  =   7
                                  Total H  = 1.110124e+02
                                  Total O  = 5.550622e+01

----------------------------Distribution of species----------------------------

                                               Log       Log       Log    mole V
   Species          Molality    Activity  Molality  Activity     Gamma   cm3/mol

   OH-             2.080e-06   2.073e-06    -5.682    -5.683    -0.002    -23.33
   H+              2.080e-06   2.072e-06    -5.682    -5.684    -0.002      0.00
   H2O             5.551e+01   1.000e+00     1.744    -0.000     0.000     20.41
Cl            2.000e-06
   Cl-             2.000e-06   1.993e-06    -5.699    -5.701    -0.002     -9.93
H(0)          8.286e-25
   H2              4.143e-25   4.143e-25   -24.383   -24.383     0.000     28.55
K             1.000e-06
   K+              1.000e-06   9.964e-07    -6.000    -6.002    -0.002     -1.23
   KOH             1.667e-15   1.667e-15   -14.778   -14.778     0.000     (0)  
Na            1.000e-06
   Na+             1.000e-06   9.964e-07    -6.000    -6.002    -0.002     -9.36
   NaOH            2.048e-22   2.048e-22   -21.689   -21.689     0.000     (0)  
O(0)          1.401e-10
   O2              7.003e-11   7.003e-11   -10.155   -10.155     0.000     37.93

------------------------------Saturation indices-------------------------------

	Phase               SI   log IAP   log K(457 K,  11 atm)

	H2(g)           -21.52    -24.38   -2.87  H2
	H2O(g)            1.01     -0.00   -1.01  H2O
	Halite          -13.52    -11.70    1.82  NaCl
	O2(g)            -7.22    -10.15   -2.94  O2


Reaction step 18.

Using solution 1.	
Using temperature 1.	

-----------------------------Solution composition------------------------------

	Elements           Molality       Moles

	Cl                2.000e-06   2.000e-06
	K                 1.000e-06   1.000e-06
	Na                1.000e-06   1.000e-06

----------------------------Description of solution----------------------------

                                       pH  =   5.653      Charge balance
                                       pe  =   4.737      Adjusted to redox equilibrium
       Specific Conductance (uS/cm, 195 oC) = 8
                          Density (g/cm3)  =   0.86987
                        Activity of water  =   1.000
                           Ionic strength  =   4.232e-06
                       Mass of water (kg)  =   1.000e+00
                 Total alkalinity (eq/kg)  =   2.215e-10
                    Total carbon (mol/kg)  =   0.000e+00
                       Total CO2 (mol/kg)  =   0.000e+00
                      Temperature (deg C)  = 195.50
                           Pressure (atm)  = 13.98
                  Electrical balance (eq)  =  -2.215e-10
 Percent error, 100*(Cat-|An|)/(Cat+|An|)  =  -0.00
                               Iterations  =   7
                                  Total H  = 1.110124e+02
                                  Total O  = 5.550622e+01

----------------------------Distribution of species----------------------------

                                               Log       Log       Log    mole V
   Species          Molality    Activity  Molality  Activity     Gamma   cm3/mol

   OH-             2.232e-06   2.223e-06    -5.651    -5.653    -0.002    -28.15
   H+              2.232e-06   2.223e-06    -5.651    -5.653    -0.002      0.00
   H2O             5.551e+01   1.000e+00     1.744    -0.000     0.000     20.71
Cl            2.000e-06
   Cl-             2.000e-06   1.992e-06    -5.699    -5.701    -0.002    -14.41
H(0)          7.885e-25
   H2              3.942e-25   3.942e-25   -24.404   -24.404     0.000     28.55
K             1.000e-06
   K+              1.000e-06   9.962e-07    -6.000    -6.002    -0.002     -3.42
   KOH             1.554e-15   1.554e-15   -14.809   -14.809     0.000     (0)  
Na            1.000e-06
   Na+             1.000e-06   9.962e-07    -6.000    -6.002    -0.002    -11.45
   NaOH            2.186e-22   2.186e-22   -21.660   -21.660     0.000     (0)  
O(0)          5.340e-09
   O2              2.670e-09   2.670e-09    -8.573    -8.573     0.000     38.85

------------------------------Saturation indices-------------------------------

	Phase               SI   log IAP   log K(468 K,  14 atm)

	H2(g)           -21.58    -24.40   -2.82  H2
	H2O(g)            1.12     -0.00   -1.12  H2O
	Halite          -13.54    -11.70    1.83  NaCl
	O2(g)            -5.68     -8.57   -2.89  O2


Reaction step 19.

Using solution 1.	
Using temperature 1.	

-----------------------------Solution composition------------------------------

	Elements           Molality       Moles

	Cl                2.000e-06   2.000e-06
	K                 1.000e-06   1.000e-06
	Na                1.000e-06   1.000e-06

----------------------------Description of solution----------------------------

                                       pH  =   5.628      Charge balance
                                       pe  =   4.328      Adjusted to redox equilibrium
       Specific Conductance (uS/cm, 207 oC) = 9
                          Density (g/cm3)  =   0.85637
                        Activity of water  =   1.000
                           Ionic strength  =   4.363e-06
                       Mass of water (kg)  =   1.000e+00
                 Total alkalinity (eq/kg)  =   2.215e-10
                    Total carbon (mol/kg)  =   0.000e+00
                       Total CO2 (mol/kg)  =   0.000e+00
                      Temperature (deg C)  = 207.00
                           Pressure (atm)  = 17.76
                  Electrical balance (eq)  =  -2.215e-10
 Percent error, 100*(Cat-|An|)/(Cat+|An|)  =  -0.00
                               Iterations  =  11
                                  Total H  = 1.110124e+02
                                  Total O  = 5.550622e+01

----------------------------Distribution of species----------------------------

                                               Log       Log       Log    mole V
   Species          Molality    Activity  Molality  Activity     Gamma   cm3/mol

   OH-             2.363e-06   2.353e-06    -5.627    -5.628    -0.002    -34.08
   H+              2.363e-06   2.353e-06    -5.627    -5.628    -0.002      0.00
   H2O             5.551e+01   1.000e+00     1.744    -0.000     0.000     21.04
Cl            2.000e-06
   Cl-             2.000e-06   1.992e-06    -5.699    -5.701    -0.002    -19.23
H(0)          5.554e-24
   H2              2.777e-24   2.777e-24   -23.556   -23.556     0.000     28.55
K             1.000e-06
   K+              1.000e-06   9.960e-07    -6.000    -6.002    -0.002     -5.79
   KOH             1.468e-15   1.468e-15   -14.833   -14.833     0.000     (0)  
Na            1.000e-06
   Na+             1.000e-06   9.960e-07    -6.000    -6.002    -0.002    -13.75
   NaOH            2.297e-22   2.297e-22   -21.639   -21.639     0.000     (0)  
O(0)          3.132e-09
   O2              1.566e-09   1.566e-09    -8.805    -8.805     0.000     39.95

------------------------------Saturation indices-------------------------------

	Phase               SI   log IAP   log K(480 K,  18 atm)

	H2(g)           -20.77    -23.56   -2.78  H2
	H2O(g)            1.22     -0.00   -1.22  H2O
	Halite          -13.55    -11.70    1.85  NaCl
	O2(g)            -5.96     -8.81   -2.85  O2


Reaction step 20.

Using solution 1.	
Using temperature 1.	

-----------------------------Solution composition------------------------------

	Elements           Molality       Moles

	Cl                2.000e-06   2.000e-06
	K                 1.000e-06   1.000e-06
	Na                1.000e-06   1.000e-06

----------------------------Description of solution----------------------------

                                       pH  =   5.609      Charge balance
                                       pe  =   4.021      Adjusted to redox equilibrium
       Specific Conductance (uS/cm, 218 oC) = 10
                          Density (g/cm3)  =   0.84216
                        Activity of water  =   1.000
                           Ionic strength  =   4.470e-06
                       Mass of water (kg)  =   1.000e+00
                 Total alkalinity (eq/kg)  =   2.215e-10
                    Total carbon (mol/kg)  =   0.000e+00
                       Total CO2 (mol/kg)  =   0.000e+00
                      Temperature (deg C)  = 218.50
                           Pressure (atm)  = 22.29
                  Electrical balance (eq)  =  -2.215e-10
 Percent error, 100*(Cat-|An|)/(Cat+|An|)  =  -0.00
                               Iterations  =  14
                                  Total H  = 1.110124e+02
                                  Total O  = 5.550622e+01

----------------------------Distribution of species----------------------------

                                               Log       Log       Log    mole V
   Species          Molality    Activity  Molality  Activity     Gamma   cm3/mol

   OH-             2.470e-06   2.460e-06    -5.607    -5.609    -0.002    -41.41
   H+              2.470e-06   2.460e-06    -5.607    -5.609    -0.002      0.00
   H2O             5.551e+01   1.000e+00     1.744    -0.000     0.000     21.39
Cl            2.000e-06
   Cl-             2.000e-06   1.992e-06    -5.699    -5.701    -0.002    -24.38
H(0)          2.377e-23
   H2              1.189e-23   1.189e-23   -22.925   -22.925     0.000     28.54
K             1.000e-06
   K+              1.000e-06   9.958e-07    -6.000    -6.002    -0.002     -8.37
   KOH             1.404e-15   1.404e-15   -14.853   -14.853     0.000     (0)  
Na            1.000e-06
   Na+             1.000e-06   9.958e-07    -6.000    -6.002    -0.002    -16.24
   NaOH            2.376e-22   2.376e-22   -21.624   -21.624     0.000     (0)  
O(0)          4.245e-09
   O2              2.122e-09   2.122e-09    -8.673    -8.673     0.000     41.29

------------------------------Saturation indices-------------------------------

	Phase               SI   log IAP   log K(491 K,  22 atm)

	H2(g)           -20.19    -22.92   -2.74  H2
	H2O(g)            1.31     -0.00   -1.31  H2O
	Halite          -13.56    -11.70    1.86  NaCl
	O2(g)            -5.87     -8.67   -2.80  O2


Reaction step 21.

Using solution 1.	
Using temperature 1.	

-----------------------------Solution composition------------------------------

	Elements           Molality       Moles

	Cl                2.000e-06   2.000e-06
	K                 1.000e-06   1.000e-06
	Na                1.000e-06   1.000e-06

----------------------------Description of solution----------------------------

                                       pH  =   5.595      Charge balance
                                       pe  =   3.710      Adjusted to redox equilibrium
       Specific Conductance (uS/cm, 230 oC) = 11
                          Density (g/cm3)  =   0.82717
                        Activity of water  =   1.000
                           Ionic strength  =   4.552e-06
                       Mass of water (kg)  =   1.000e+00
                 Total alkalinity (eq/kg)  =   2.215e-10
                    Total carbon (mol/kg)  =   0.000e+00
                       Total CO2 (mol/kg)  =   0.000e+00
                      Temperature (deg C)  = 230.00
                           Pressure (atm)  = 27.65
                  Electrical balance (eq)  =  -2.215e-10
 Percent error, 100*(Cat-|An|)/(Cat+|An|)  =  -0.00
                               Iterations  =  17
                                  Total H  = 1.110124e+02
                                  Total O  = 5.550622e+01

----------------------------Distribution of species----------------------------

                                               Log       Log       Log    mole V
   Species          Molality    Activity  Molality  Activity     Gamma   cm3/mol

   OH-             2.552e-06   2.541e-06    -5.593    -5.595    -0.002    -50.59
   H+              2.552e-06   2.541e-06    -5.593    -5.595    -0.002      0.00
   H2O             5.551e+01   1.000e+00     1.744    -0.000     0.000     21.78
Cl            2.000e-06
   Cl-             2.000e-06   1.991e-06    -5.699    -5.701    -0.002    -29.86
H(0)          1.019e-22
   H2              5.095e-23   5.095e-23   -22.293   -22.293     0.000     28.54
K             1.000e-06
   K+              1.000e-06   9.956e-07    -6.000    -6.002    -0.002    -11.13
   KOH             1.359e-15   1.359e-15   -14.867   -14.867     0.000     (0)  
Na            1.000e-06
   Na+             1.000e-06   9.956e-07    -6.000    -6.002    -0.002    -18.94
   NaOH            2.419e-22   2.419e-22   -21.616   -21.616     0.000     (0)  
O(0)          4.946e-09
   O2              2.473e-09   2.473e-09    -8.607    -8.607     0.000     42.94

------------------------------Saturation indices-------------------------------

	Phase               SI   log IAP   log K(503 K,  28 atm)

	H2(g)           -19.60    -22.29   -2.69  H2
	H2O(g)            1.39     -0.00   -1.39  H2O
	Halite          -13.58    -11.70    1.88  NaCl
	O2(g)            -5.86     -8.61   -2.75  O2


------------------
End of simulation.
------------------

------------------------------------
Reading input data for simulation 3.
------------------------------------

------------------------------
End of Run after 0.05 Seconds.
------------------------------

