   Input file: mV_SO4_rho
  Output file: mV_SO4_rho.out
Database file: ../database/phreeqc.dat

------------------
Reading data base.
------------------

	SOLUTION_MASTER_SPECIES
	SOLUTION_SPECIES
	PHASES
	EXCHANGE_MASTER_SPECIES
	EXCHANGE_SPECIES
	SURFACE_MASTER_SPECIES
	SURFACE_SPECIES
	RATES
	END
------------------------------------
Reading input data for simulation 1.
------------------------------------

	DATABASE ../database/phreeqc.dat
	SOLUTION_SPECIES
	Na+ = Na+
		gamma	4.0	0.075
		dw	 1.33e-9
		millero -3.46 0.1092 -0.000768 2.698 -0.106 0.001651
	SO4-2 = SO4-2
		gamma	5.0	-0.04
		dw	 1.07e-9
		millero 9.26 0.284 -0.003808 0.4348 -0.0099143 -8.4762e-05
	USER_PRINT
	 30 put(rho, step_no)
	SOLUTION 1
	REACTION_TEMPERATURE 1
	 0 250 in 21
	END
-------------------------------------------
Beginning of initial solution calculations.
-------------------------------------------

Initial solution 1.	

----------------------------------User print-----------------------------------


-----------------------------Solution composition------------------------------

	Elements           Molality       Moles

	Pure water     

----------------------------Description of solution----------------------------

                                       pH  =   7.000    
                                       pe  =   4.000    
       Specific Conductance (uS/cm, 25 oC) = 0
                          Density (g/cm3)  =   0.99705
                        Activity of water  =   1.000
                           Ionic strength  =   1.002e-07
                       Mass of water (kg)  =   1.000e+00
                 Total alkalinity (eq/kg)  =   2.208e-10
                    Total carbon (mol/kg)  =   0.000e+00
                       Total CO2 (mol/kg)  =   0.000e+00
                      Temperature (deg C)  =  25.00
                  Electrical balance (eq)  =  -2.208e-10
 Percent error, 100*(Cat-|An|)/(Cat+|An|)  =  -0.11
                               Iterations  =   0
                                  Total H  = 1.110124e+02
                                  Total O  = 5.550622e+01

----------------------------Distribution of species----------------------------

                                               Log       Log       Log    mole V
   Species          Molality    Activity  Molality  Activity     Gamma   cm3/mol

   OH-             1.003e-07   1.002e-07    -6.999    -6.999    -0.000     -4.11
   H+              1.001e-07   1.000e-07    -7.000    -7.000    -0.000      0.00
   H2O             5.551e+01   1.000e+00     1.744     0.000     0.000     18.07
H(0)          1.416e-25
   H2              7.079e-26   7.079e-26   -25.150   -25.150     0.000     28.61
O(0)          0.000e+00
   O2              0.000e+00   0.000e+00   -42.080   -42.080     0.000     30.40

------------------------------Saturation indices-------------------------------

	Phase               SI   log IAP   log K(298 K,   1 atm)

	H2(g)           -22.05    -25.15   -3.10  H2
	H2O(g)           -1.50      0.00    1.50  H2O
	O2(g)           -39.19    -42.08   -2.89  O2


-----------------------------------------
Beginning of batch-reaction calculations.
-----------------------------------------

Reaction step 1.

Using solution 1.	
Using temperature 1.	

----------------------------------User print-----------------------------------


-----------------------------Solution composition------------------------------

	Elements           Molality       Moles

	Pure water     

----------------------------Description of solution----------------------------

                                       pH  =   7.481      Charge balance
                                       pe  =  -1.684      Adjusted to redox equilibrium
       Specific Conductance (uS/cm, 0 oC) = 0
                          Density (g/cm3)  =   0.99984
                        Activity of water  =   1.000
                           Ionic strength  =   3.313e-08
                       Mass of water (kg)  =   1.000e+00
                 Total alkalinity (eq/kg)  =   2.208e-10
                    Total carbon (mol/kg)  =   0.000e+00
                       Total CO2 (mol/kg)  =   0.000e+00
                      Temperature (deg C)  =   0.00
                  Electrical balance (eq)  =  -2.208e-10
 Percent error, 100*(Cat-|An|)/(Cat+|An|)  =  -0.33
                               Iterations  =  33
                                  Total H  = 1.110124e+02
                                  Total O  = 5.550622e+01

----------------------------Distribution of species----------------------------

                                               Log       Log       Log    mole V
   Species          Molality    Activity  Molality  Activity     Gamma   cm3/mol

   OH-             3.324e-08   3.323e-08    -7.478    -7.478    -0.000     -6.62
   H+              3.302e-08   3.301e-08    -7.481    -7.481    -0.000      0.00
   H2O             5.551e+01   1.000e+00     1.744    -0.000     0.000     18.02
H(0)          4.726e-15
   H2              2.363e-15   2.363e-15   -14.627   -14.627     0.000     28.65
O(0)          0.000e+00
   O2              0.000e+00   0.000e+00   -71.933   -71.933     0.000     27.49

------------------------------Saturation indices-------------------------------

	Phase               SI   log IAP   log K(273 K,   1 atm)

	H2(g)           -11.62    -14.63   -3.01  H2
	H2O(g)           -2.21     -0.00    2.21  H2O
	O2(g)           -69.27    -71.93   -2.66  O2


Reaction step 2.

Using solution 1.	
Using temperature 1.	

----------------------------------User print-----------------------------------


-----------------------------Solution composition------------------------------

	Elements           Molality       Moles

	Pure water     

----------------------------Description of solution----------------------------

                                       pH  =   7.224      Charge balance
                                       pe  =  -1.458      Adjusted to redox equilibrium
       Specific Conductance (uS/cm, 12 oC) = 0
                          Density (g/cm3)  =   0.99944
                        Activity of water  =   1.000
                           Ionic strength  =   5.981e-08
                       Mass of water (kg)  =   1.000e+00
                 Total alkalinity (eq/kg)  =   2.208e-10
                    Total carbon (mol/kg)  =   0.000e+00
                       Total CO2 (mol/kg)  =   0.000e+00
                      Temperature (deg C)  =  12.50
                  Electrical balance (eq)  =  -2.208e-10
 Percent error, 100*(Cat-|An|)/(Cat+|An|)  =  -0.18
                               Iterations  =  32
                                  Total H  = 1.110124e+02
                                  Total O  = 5.550622e+01

----------------------------Distribution of species----------------------------

                                               Log       Log       Log    mole V
   Species          Molality    Activity  Molality  Activity     Gamma   cm3/mol

   OH-             5.992e-08   5.990e-08    -7.222    -7.223    -0.000     -4.96
   H+              5.970e-08   5.968e-08    -7.224    -7.224    -0.000      0.00
   H2O             5.551e+01   1.000e+00     1.744    -0.000     0.000     18.03
H(0)          4.726e-15
   H2              2.363e-15   2.363e-15   -14.627   -14.627     0.000     28.62
O(0)          0.000e+00
   O2              0.000e+00   0.000e+00   -67.337   -67.337     0.000     29.24

------------------------------Saturation indices-------------------------------

	Phase               SI   log IAP   log K(285 K,   1 atm)

	H2(g)           -11.56    -14.63   -3.06  H2
	H2O(g)           -1.84     -0.00    1.84  H2O
	O2(g)           -64.55    -67.34   -2.79  O2


Reaction step 3.

Using solution 1.	
Using temperature 1.	

----------------------------------User print-----------------------------------


-----------------------------Solution composition------------------------------

	Elements           Molality       Moles

	Pure water     

----------------------------Description of solution----------------------------

                                       pH  =   7.000      Charge balance
                                       pe  =  -1.262      Adjusted to redox equilibrium
       Specific Conductance (uS/cm, 25 oC) = 0
                          Density (g/cm3)  =   0.99705
                        Activity of water  =   1.000
                           Ionic strength  =   1.001e-07
                       Mass of water (kg)  =   1.000e+00
                 Total alkalinity (eq/kg)  =   2.208e-10
                    Total carbon (mol/kg)  =   0.000e+00
                       Total CO2 (mol/kg)  =   0.000e+00
                      Temperature (deg C)  =  25.00
                  Electrical balance (eq)  =  -2.208e-10
 Percent error, 100*(Cat-|An|)/(Cat+|An|)  =  -0.11
                               Iterations  =  10
                                  Total H  = 1.110124e+02
                                  Total O  = 5.550622e+01

----------------------------Distribution of species----------------------------

                                               Log       Log       Log    mole V
   Species          Molality    Activity  Molality  Activity     Gamma   cm3/mol

   OH-             1.003e-07   1.002e-07    -6.999    -6.999    -0.000     -4.11
   H+              1.000e-07   1.000e-07    -7.000    -7.000    -0.000      0.00
   H2O             5.551e+01   1.000e+00     1.744    -0.000     0.000     18.07
H(0)          4.726e-15
   H2              2.363e-15   2.363e-15   -14.627   -14.627     0.000     28.61
O(0)          0.000e+00
   O2              0.000e+00   0.000e+00   -63.127   -63.127     0.000     30.40

------------------------------Saturation indices-------------------------------

	Phase               SI   log IAP   log K(298 K,   1 atm)

	H2(g)           -11.53    -14.63   -3.10  H2
	H2O(g)           -1.50     -0.00    1.50  H2O
	O2(g)           -60.23    -63.13   -2.89  O2


Reaction step 4.

Using solution 1.	
Using temperature 1.	

----------------------------------User print-----------------------------------


-----------------------------Solution composition------------------------------

	Elements           Molality       Moles

	Pure water     

----------------------------Description of solution----------------------------

                                       pH  =   6.804      Charge balance
                                       pe  =  -1.091      Adjusted to redox equilibrium
       Specific Conductance (uS/cm, 37 oC) = 0
                          Density (g/cm3)  =   0.99316
                        Activity of water  =   1.000
                           Ionic strength  =   1.573e-07
                       Mass of water (kg)  =   1.000e+00
                 Total alkalinity (eq/kg)  =   2.208e-10
                    Total carbon (mol/kg)  =   0.000e+00
                       Total CO2 (mol/kg)  =   0.000e+00
                      Temperature (deg C)  =  37.50
                  Electrical balance (eq)  =  -2.208e-10
 Percent error, 100*(Cat-|An|)/(Cat+|An|)  =  -0.07
                               Iterations  =  10
                                  Total H  = 1.110124e+02
                                  Total O  = 5.550622e+01

----------------------------Distribution of species----------------------------

                                               Log       Log       Log    mole V
   Species          Molality    Activity  Molality  Activity     Gamma   cm3/mol

   OH-             1.575e-07   1.574e-07    -6.803    -6.803    -0.000     -3.74
   H+              1.572e-07   1.572e-07    -6.803    -6.804    -0.000      0.00
   H2O             5.551e+01   1.000e+00     1.744    -0.000     0.000     18.14
H(0)          4.726e-15
   H2              2.363e-15   2.363e-15   -14.627   -14.627     0.000     28.60
O(0)          0.000e+00
   O2              0.000e+00   0.000e+00   -59.255   -59.255     0.000     31.25

------------------------------Saturation indices-------------------------------

	Phase               SI   log IAP   log K(310 K,   1 atm)

	H2(g)           -11.50    -14.63   -3.12  H2
	H2O(g)           -1.20     -0.00    1.20  H2O
	O2(g)           -56.28    -59.26   -2.97  O2


Reaction step 5.

Using solution 1.	
Using temperature 1.	

----------------------------------User print-----------------------------------


-----------------------------Solution composition------------------------------

	Elements           Molality       Moles

	Pure water     

----------------------------Description of solution----------------------------

                                       pH  =   6.631      Charge balance
                                       pe  =  -0.943      Adjusted to redox equilibrium
       Specific Conductance (uS/cm, 50 oC) = 0
                          Density (g/cm3)  =   0.98805
                        Activity of water  =   1.000
                           Ionic strength  =   2.341e-07
                       Mass of water (kg)  =   1.000e+00
                 Total alkalinity (eq/kg)  =   2.208e-10
                    Total carbon (mol/kg)  =   0.000e+00
                       Total CO2 (mol/kg)  =   0.000e+00
                      Temperature (deg C)  =  50.00
                  Electrical balance (eq)  =  -2.208e-10
 Percent error, 100*(Cat-|An|)/(Cat+|An|)  =  -0.05
                               Iterations  =  10
                                  Total H  = 1.110124e+02
                                  Total O  = 5.550622e+01

----------------------------Distribution of species----------------------------

                                               Log       Log       Log    mole V
   Species          Molality    Activity  Molality  Activity     Gamma   cm3/mol

   OH-             2.342e-07   2.341e-07    -6.630    -6.631    -0.000     -3.72
   H+              2.340e-07   2.339e-07    -6.631    -6.631    -0.000      0.00
   H2O             5.551e+01   1.000e+00     1.744    -0.000     0.000     18.23
H(0)          4.730e-15
   H2              2.365e-15   2.365e-15   -14.626   -14.626     0.000     28.59
O(0)          0.000e+00
   O2              0.000e+00   0.000e+00   -55.684   -55.684     0.000     31.92

------------------------------Saturation indices-------------------------------

	Phase               SI   log IAP   log K(323 K,   1 atm)

	H2(g)           -11.49    -14.63   -3.14  H2
	H2O(g)           -0.92     -0.00    0.92  H2O
	O2(g)           -52.65    -55.68   -3.03  O2


Reaction step 6.

Using solution 1.	
Using temperature 1.	

----------------------------------User print-----------------------------------


-----------------------------Solution composition------------------------------

	Elements           Molality       Moles

	Pure water     

----------------------------Description of solution----------------------------

                                       pH  =   6.479      Charge balance
                                       pe  =  -0.814      Adjusted to redox equilibrium
       Specific Conductance (uS/cm, 62 oC) = 0
                          Density (g/cm3)  =   0.98191
                        Activity of water  =   1.000
                           Ionic strength  =   3.324e-07
                       Mass of water (kg)  =   1.000e+00
                 Total alkalinity (eq/kg)  =   2.208e-10
                    Total carbon (mol/kg)  =   0.000e+00
                       Total CO2 (mol/kg)  =   0.000e+00
                      Temperature (deg C)  =  62.50
                  Electrical balance (eq)  =  -2.208e-10
 Percent error, 100*(Cat-|An|)/(Cat+|An|)  =  -0.03
                               Iterations  =  10
                                  Total H  = 1.110124e+02
                                  Total O  = 5.550622e+01

----------------------------Distribution of species----------------------------

                                               Log       Log       Log    mole V
   Species          Molality    Activity  Molality  Activity     Gamma   cm3/mol

   OH-             3.325e-07   3.323e-07    -6.478    -6.478    -0.000     -3.98
   H+              3.323e-07   3.321e-07    -6.478    -6.479    -0.000      0.00
   H2O             5.551e+01   1.000e+00     1.744    -0.000     0.000     18.35
H(0)          4.753e-15
   H2              2.376e-15   2.376e-15   -14.624   -14.624     0.000     28.58
O(0)          0.000e+00
   O2              0.000e+00   0.000e+00   -52.382   -52.382     0.000     32.49

------------------------------Saturation indices-------------------------------

	Phase               SI   log IAP   log K(335 K,   1 atm)

	H2(g)           -11.49    -14.62   -3.14  H2
	H2O(g)           -0.66     -0.00    0.66  H2O
	O2(g)           -49.31    -52.38   -3.07  O2


Reaction step 7.

Using solution 1.	
Using temperature 1.	

----------------------------------User print-----------------------------------


-----------------------------Solution composition------------------------------

	Elements           Molality       Moles

	Pure water     

----------------------------Description of solution----------------------------

                                       pH  =   6.344      Charge balance
                                       pe  =  -0.703      Adjusted to redox equilibrium
       Specific Conductance (uS/cm, 75 oC) = 0
                          Density (g/cm3)  =   0.97486
                        Activity of water  =   1.000
                           Ionic strength  =   4.532e-07
                       Mass of water (kg)  =   1.000e+00
                 Total alkalinity (eq/kg)  =   2.208e-10
                    Total carbon (mol/kg)  =   0.000e+00
                       Total CO2 (mol/kg)  =   0.000e+00
                      Temperature (deg C)  =  75.00
                  Electrical balance (eq)  =  -2.208e-10
 Percent error, 100*(Cat-|An|)/(Cat+|An|)  =  -0.02
                               Iterations  =  10
                                  Total H  = 1.110124e+02
                                  Total O  = 5.550622e+01

----------------------------Distribution of species----------------------------

                                               Log       Log       Log    mole V
   Species          Molality    Activity  Molality  Activity     Gamma   cm3/mol

   OH-             4.533e-07   4.529e-07    -6.344    -6.344    -0.000     -4.48
   H+              4.531e-07   4.527e-07    -6.344    -6.344    -0.000      0.00
   H2O             5.551e+01   1.000e+00     1.744    -0.000     0.000     18.48
H(0)          4.835e-15
   H2              2.417e-15   2.417e-15   -14.617   -14.617     0.000     28.58
O(0)          0.000e+00
   O2              0.000e+00   0.000e+00   -49.328   -49.328     0.000     32.99

------------------------------Saturation indices-------------------------------

	Phase               SI   log IAP   log K(348 K,   1 atm)

	H2(g)           -11.48    -14.62   -3.13  H2
	H2O(g)           -0.42     -0.00    0.42  H2O
	O2(g)           -46.23    -49.33   -3.10  O2


Reaction step 8.

Using solution 1.	
Using temperature 1.	

----------------------------------User print-----------------------------------


-----------------------------Solution composition------------------------------

	Elements           Molality       Moles

	Pure water     

----------------------------Description of solution----------------------------

                                       pH  =   6.225      Charge balance
                                       pe  =  -0.599      Adjusted to redox equilibrium
       Specific Conductance (uS/cm, 87 oC) = 0
                          Density (g/cm3)  =   0.96699
                        Activity of water  =   1.000
                           Ionic strength  =   5.961e-07
                       Mass of water (kg)  =   1.000e+00
                 Total alkalinity (eq/kg)  =   2.208e-10
                    Total carbon (mol/kg)  =   0.000e+00
                       Total CO2 (mol/kg)  =   0.000e+00
                      Temperature (deg C)  =  87.50
                  Electrical balance (eq)  =  -2.208e-10
 Percent error, 100*(Cat-|An|)/(Cat+|An|)  =  -0.02
                               Iterations  =  11
                                  Total H  = 1.110124e+02
                                  Total O  = 5.550622e+01

----------------------------Distribution of species----------------------------

                                               Log       Log       Log    mole V
   Species          Molality    Activity  Molality  Activity     Gamma   cm3/mol

   OH-             5.962e-07   5.956e-07    -6.225    -6.225    -0.000     -5.23
   H+              5.960e-07   5.954e-07    -6.225    -6.225    -0.000      0.00
   H2O             5.551e+01   1.000e+00     1.744    -0.000     0.000     18.63
H(0)          4.736e-15
   H2              2.368e-15   2.368e-15   -14.626   -14.626     0.000     28.57
O(0)          0.000e+00
   O2              0.000e+00   0.000e+00   -46.454   -46.454     0.000     33.45

------------------------------Saturation indices-------------------------------

	Phase               SI   log IAP   log K(360 K,   1 atm)

	H2(g)           -11.51    -14.63   -3.12  H2
	H2O(g)           -0.21     -0.00    0.21  H2O
	O2(g)           -43.34    -46.45   -3.11  O2


Reaction step 9.

Using solution 1.	
Using temperature 1.	

----------------------------------User print-----------------------------------


-----------------------------Solution composition------------------------------

	Elements           Molality       Moles

	Pure water     

----------------------------Description of solution----------------------------

                                       pH  =   6.120      Charge balance
                                       pe  =  -0.514      Adjusted to redox equilibrium
       Specific Conductance (uS/cm, 100 oC) = 1
                          Density (g/cm3)  =   0.95835
                        Activity of water  =   1.000
                           Ionic strength  =   7.596e-07
                       Mass of water (kg)  =   1.000e+00
                 Total alkalinity (eq/kg)  =   2.208e-10
                    Total carbon (mol/kg)  =   0.000e+00
                       Total CO2 (mol/kg)  =   0.000e+00
                      Temperature (deg C)  = 100.00
                  Electrical balance (eq)  =  -2.208e-10
 Percent error, 100*(Cat-|An|)/(Cat+|An|)  =  -0.01
                               Iterations  =  11
                                  Total H  = 1.110124e+02
                                  Total O  = 5.550622e+01

----------------------------Distribution of species----------------------------

                                               Log       Log       Log    mole V
   Species          Molality    Activity  Molality  Activity     Gamma   cm3/mol

   OH-             7.597e-07   7.588e-07    -6.119    -6.120    -0.001     -6.23
   H+              7.595e-07   7.586e-07    -6.119    -6.120    -0.001      0.00
   H2O             5.551e+01   1.000e+00     1.744    -0.000     0.000     18.80
H(0)          4.782e-15
   H2              2.391e-15   2.391e-15   -14.621   -14.621     0.000     28.57
O(0)          0.000e+00
   O2              0.000e+00   0.000e+00   -43.798   -43.798     0.000     33.90

------------------------------Saturation indices-------------------------------

	Phase               SI   log IAP   log K(373 K,   1 atm)

	H2(g)           -11.52    -14.62   -3.10  H2
	H2O(g)           -0.00     -0.00    0.00  H2O
	O2(g)           -40.68    -43.80   -3.11  O2


Reaction step 10.

Using solution 1.	
Using temperature 1.	

----------------------------------User print-----------------------------------


-----------------------------Solution composition------------------------------

	Elements           Molality       Moles

	Pure water     

----------------------------Description of solution----------------------------

                                       pH  =   6.027      Charge balance
                                       pe  =  -0.444      Adjusted to redox equilibrium
       Specific Conductance (uS/cm, 112 oC) = 1
                          Density (g/cm3)  =   0.94903
                        Activity of water  =   1.000
                           Ionic strength  =   9.411e-07
                       Mass of water (kg)  =   1.000e+00
                 Total alkalinity (eq/kg)  =   2.208e-10
                    Total carbon (mol/kg)  =   0.000e+00
                       Total CO2 (mol/kg)  =   0.000e+00
                      Temperature (deg C)  = 112.50
                           Pressure (atm)  =  1.54
                  Electrical balance (eq)  =  -2.208e-10
 Percent error, 100*(Cat-|An|)/(Cat+|An|)  =  -0.01
                               Iterations  =  11
                                  Total H  = 1.110124e+02
                                  Total O  = 5.550622e+01

----------------------------Distribution of species----------------------------

                                               Log       Log       Log    mole V
   Species          Molality    Activity  Molality  Activity     Gamma   cm3/mol

   OH-             9.412e-07   9.399e-07    -6.026    -6.027    -0.001     -7.51
   H+              9.410e-07   9.397e-07    -6.026    -6.027    -0.001      0.00
   H2O             5.551e+01   1.000e+00     1.744    -0.000     0.000     18.98
H(0)          4.933e-15
   H2              2.467e-15   2.467e-15   -14.608   -14.608     0.000     28.57
O(0)          0.000e+00
   O2              0.000e+00   0.000e+00   -41.333   -41.333     0.000     34.35

------------------------------Saturation indices-------------------------------

	Phase               SI   log IAP   log K(385 K,   2 atm)

	H2(g)           -11.53    -14.61   -3.08  H2
	H2O(g)            0.18     -0.00   -0.18  H2O
	O2(g)           -38.23    -41.33   -3.11  O2


Reaction step 11.

Using solution 1.	
Using temperature 1.	

----------------------------------User print-----------------------------------


-----------------------------Solution composition------------------------------

	Elements           Molality       Moles

	Pure water     

----------------------------Description of solution----------------------------

                                       pH  =   5.945      Charge balance
                                       pe  =  -0.371      Adjusted to redox equilibrium
       Specific Conductance (uS/cm, 125 oC) = 2
                          Density (g/cm3)  =   0.93902
                        Activity of water  =   1.000
                           Ionic strength  =   1.136e-06
                       Mass of water (kg)  =   1.000e+00
                 Total alkalinity (eq/kg)  =   2.208e-10
                    Total carbon (mol/kg)  =   0.000e+00
                       Total CO2 (mol/kg)  =   0.000e+00
                      Temperature (deg C)  = 125.00
                           Pressure (atm)  =  2.29
                  Electrical balance (eq)  =  -2.208e-10
 Percent error, 100*(Cat-|An|)/(Cat+|An|)  =  -0.01
                               Iterations  =  11
                                  Total H  = 1.110124e+02
                                  Total O  = 5.550622e+01

----------------------------Distribution of species----------------------------

                                               Log       Log       Log    mole V
   Species          Molality    Activity  Molality  Activity     Gamma   cm3/mol

   OH-             1.137e-06   1.135e-06    -5.944    -5.945    -0.001     -9.11
   H+              1.136e-06   1.135e-06    -5.944    -5.945    -0.001      0.00
   H2O             5.551e+01   1.000e+00     1.744    -0.000     0.000     19.19
H(0)          4.762e-15
   H2              2.381e-15   2.381e-15   -14.623   -14.623     0.000     28.56
O(0)          2.155e-39
   O2              1.077e-39   1.077e-39   -38.968   -38.968     0.000     34.83

------------------------------Saturation indices-------------------------------

	Phase               SI   log IAP   log K(398 K,   2 atm)

	H2(g)           -11.58    -14.62   -3.05  H2
	H2O(g)            0.35     -0.00   -0.35  H2O
	O2(g)           -35.87    -38.97   -3.09  O2


Reaction step 12.

Using solution 1.	
Using temperature 1.	

----------------------------------User print-----------------------------------


-----------------------------Solution composition------------------------------

	Elements           Molality       Moles

	Pure water     

----------------------------Description of solution----------------------------

                                       pH  =   5.873      Charge balance
                                       pe  =  -0.312      Adjusted to redox equilibrium
       Specific Conductance (uS/cm, 137 oC) = 3
                          Density (g/cm3)  =   0.92835
                        Activity of water  =   1.000
                           Ionic strength  =   1.341e-06
                       Mass of water (kg)  =   1.000e+00
                 Total alkalinity (eq/kg)  =   2.208e-10
                    Total carbon (mol/kg)  =   0.000e+00
                       Total CO2 (mol/kg)  =   0.000e+00
                      Temperature (deg C)  = 137.50
                           Pressure (atm)  =  3.32
                  Electrical balance (eq)  =  -2.208e-10
 Percent error, 100*(Cat-|An|)/(Cat+|An|)  =  -0.01
                               Iterations  =  11
                                  Total H  = 1.110124e+02
                                  Total O  = 5.550622e+01

----------------------------Distribution of species----------------------------

                                               Log       Log       Log    mole V
   Species          Molality    Activity  Molality  Activity     Gamma   cm3/mol

   OH-             1.341e-06   1.339e-06    -5.873    -5.873    -0.001    -11.09
   H+              1.341e-06   1.338e-06    -5.873    -5.873    -0.001      0.00
   H2O             5.551e+01   1.000e+00     1.744    -0.000     0.000     19.41
H(0)          4.726e-15
   H2              2.363e-15   2.363e-15   -14.627   -14.627     0.000     28.56
O(0)          3.409e-37
   O2              1.705e-37   1.705e-37   -36.768   -36.768     0.000     35.34

------------------------------Saturation indices-------------------------------

	Phase               SI   log IAP   log K(410 K,   3 atm)

	H2(g)           -11.61    -14.63   -3.02  H2
	H2O(g)            0.51     -0.00   -0.51  H2O
	O2(g)           -33.70    -36.77   -3.07  O2


Reaction step 13.

Using solution 1.	
Using temperature 1.	

----------------------------------User print-----------------------------------


-----------------------------Solution composition------------------------------

	Elements           Molality       Moles

	Pure water     

----------------------------Description of solution----------------------------

                                       pH  =   5.811      Charge balance
                                       pe  =   4.320      Adjusted to redox equilibrium
       Specific Conductance (uS/cm, 150 oC) = 4
                          Density (g/cm3)  =   0.91701
                        Activity of water  =   1.000
                           Ionic strength  =   1.548e-06
                       Mass of water (kg)  =   1.000e+00
                 Total alkalinity (eq/kg)  =   2.208e-10
                    Total carbon (mol/kg)  =   0.000e+00
                       Total CO2 (mol/kg)  =   0.000e+00
                      Temperature (deg C)  = 150.00
                           Pressure (atm)  =  4.70
                  Electrical balance (eq)  =  -2.208e-10
 Percent error, 100*(Cat-|An|)/(Cat+|An|)  =  -0.01
                               Iterations  =   7
                                  Total H  = 1.110124e+02
                                  Total O  = 5.550622e+01

----------------------------Distribution of species----------------------------

                                               Log       Log       Log    mole V
   Species          Molality    Activity  Molality  Activity     Gamma   cm3/mol

   OH-             1.548e-06   1.545e-06    -5.810    -5.811    -0.001    -13.52
   H+              1.548e-06   1.545e-06    -5.810    -5.811    -0.001      0.00
   H2O             5.551e+01   1.000e+00     1.744    -0.000     0.000     19.65
H(0)          3.218e-24
   H2              1.609e-24   1.609e-24   -23.793   -23.793     0.000     28.56
O(0)          8.496e-17
   O2              4.248e-17   4.248e-17   -16.372   -16.372     0.000     35.91

------------------------------Saturation indices-------------------------------

	Phase               SI   log IAP   log K(423 K,   5 atm)

	H2(g)           -20.81    -23.79   -2.98  H2
	H2O(g)            0.66     -0.00   -0.66  H2O
	O2(g)           -13.33    -16.37   -3.04  O2


Reaction step 14.

Using solution 1.	
Using temperature 1.	

----------------------------------User print-----------------------------------


-----------------------------Solution composition------------------------------

	Elements           Molality       Moles

	Pure water     

----------------------------Description of solution----------------------------

                                       pH  =   5.757      Charge balance
                                       pe  =   4.632      Adjusted to redox equilibrium
       Specific Conductance (uS/cm, 162 oC) = 5
                          Density (g/cm3)  =   0.90499
                        Activity of water  =   1.000
                           Ionic strength  =   1.752e-06
                       Mass of water (kg)  =   1.000e+00
                 Total alkalinity (eq/kg)  =   2.208e-10
                    Total carbon (mol/kg)  =   0.000e+00
                       Total CO2 (mol/kg)  =   0.000e+00
                      Temperature (deg C)  = 162.50
                           Pressure (atm)  =  6.50
                  Electrical balance (eq)  =  -2.208e-10
 Percent error, 100*(Cat-|An|)/(Cat+|An|)  =  -0.01
                               Iterations  =   7
                                  Total H  = 1.110124e+02
                                  Total O  = 5.550622e+01

----------------------------Distribution of species----------------------------

                                               Log       Log       Log    mole V
   Species          Molality    Activity  Molality  Activity     Gamma   cm3/mol

   OH-             1.753e-06   1.749e-06    -5.756    -5.757    -0.001    -16.50
   H+              1.752e-06   1.749e-06    -5.756    -5.757    -0.001      0.00
   H2O             5.551e+01   1.000e+00     1.744    -0.000     0.000     19.91
H(0)          9.214e-25
   H2              4.607e-25   4.607e-25   -24.337   -24.337     0.000     28.56
O(0)          9.114e-14
   O2              4.557e-14   4.557e-14   -13.341   -13.341     0.000     36.56

------------------------------Saturation indices-------------------------------

	Phase               SI   log IAP   log K(435 K,   7 atm)

	H2(g)           -21.40    -24.34   -2.94  H2
	H2O(g)            0.80     -0.00   -0.80  H2O
	O2(g)           -10.33    -13.34   -3.01  O2


Reaction step 15.

Using solution 1.	
Using temperature 1.	

----------------------------------User print-----------------------------------


-----------------------------Solution composition------------------------------

	Elements           Molality       Moles

	Pure water     

----------------------------Description of solution----------------------------

                                       pH  =   5.712      Charge balance
                                       pe  =   4.679      Adjusted to redox equilibrium
       Specific Conductance (uS/cm, 175 oC) = 6
                          Density (g/cm3)  =   0.89229
                        Activity of water  =   1.000
                           Ionic strength  =   1.947e-06
                       Mass of water (kg)  =   1.000e+00
                 Total alkalinity (eq/kg)  =   2.208e-10
                    Total carbon (mol/kg)  =   0.000e+00
                       Total CO2 (mol/kg)  =   0.000e+00
                      Temperature (deg C)  = 175.00
                           Pressure (atm)  =  8.82
                  Electrical balance (eq)  =  -2.208e-10
 Percent error, 100*(Cat-|An|)/(Cat+|An|)  =  -0.01
                               Iterations  =   7
                                  Total H  = 1.110124e+02
                                  Total O  = 5.550622e+01

----------------------------Distribution of species----------------------------

                                               Log       Log       Log    mole V
   Species          Molality    Activity  Molality  Activity     Gamma   cm3/mol

   OH-             1.947e-06   1.943e-06    -5.711    -5.712    -0.001    -20.17
   H+              1.947e-06   1.942e-06    -5.711    -5.712    -0.001      0.00
   H2O             5.551e+01   1.000e+00     1.744    -0.000     0.000     20.19
H(0)          8.628e-25
   H2              4.314e-25   4.314e-25   -24.365   -24.365     0.000     28.55
O(0)          7.115e-12
   O2              3.557e-12   3.557e-12   -11.449   -11.449     0.000     37.31

------------------------------Saturation indices-------------------------------

	Phase               SI   log IAP   log K(448 K,   9 atm)

	H2(g)           -21.47    -24.37   -2.90  H2
	H2O(g)            0.93     -0.00   -0.93  H2O
	O2(g)            -8.48    -11.45   -2.97  O2


Reaction step 16.

Using solution 1.	
Using temperature 1.	

----------------------------------User print-----------------------------------


-----------------------------Solution composition------------------------------

	Elements           Molality       Moles

	Pure water     

----------------------------Description of solution----------------------------

                                       pH  =   5.674      Charge balance
                                       pe  =   4.717      Adjusted to redox equilibrium
       Specific Conductance (uS/cm, 187 oC) = 7
                          Density (g/cm3)  =   0.87886
                        Activity of water  =   1.000
                           Ionic strength  =   2.126e-06
                       Mass of water (kg)  =   1.000e+00
                 Total alkalinity (eq/kg)  =   2.208e-10
                    Total carbon (mol/kg)  =   0.000e+00
                       Total CO2 (mol/kg)  =   0.000e+00
                      Temperature (deg C)  = 187.50
                           Pressure (atm)  = 11.74
                  Electrical balance (eq)  =  -2.208e-10
 Percent error, 100*(Cat-|An|)/(Cat+|An|)  =  -0.01
                               Iterations  =   7
                                  Total H  = 1.110124e+02
                                  Total O  = 5.550622e+01

----------------------------Distribution of species----------------------------

                                               Log       Log       Log    mole V
   Species          Molality    Activity  Molality  Activity     Gamma   cm3/mol

   OH-             2.126e-06   2.120e-06    -5.672    -5.674    -0.001    -24.70
   H+              2.126e-06   2.120e-06    -5.672    -5.674    -0.001      0.00
   H2O             5.551e+01   1.000e+00     1.744    -0.000     0.000     20.50
H(0)          8.160e-25
   H2              4.080e-25   4.080e-25   -24.389   -24.389     0.000     28.55
O(0)          4.324e-10
   O2              2.162e-10   2.162e-10    -9.665    -9.665     0.000     38.19

------------------------------Saturation indices-------------------------------

	Phase               SI   log IAP   log K(460 K,  12 atm)

	H2(g)           -21.54    -24.39   -2.85  H2
	H2O(g)            1.04     -0.00   -1.04  H2O
	O2(g)            -6.74     -9.67   -2.92  O2


Reaction step 17.

Using solution 1.	
Using temperature 1.	

----------------------------------User print-----------------------------------


-----------------------------Solution composition------------------------------

	Elements           Molality       Moles

	Pure water     

----------------------------Description of solution----------------------------

                                       pH  =   5.643      Charge balance
                                       pe  =   4.531      Adjusted to redox equilibrium
       Specific Conductance (uS/cm, 200 oC) = 8
                          Density (g/cm3)  =   0.86467
                        Activity of water  =   1.000
                           Ionic strength  =   2.283e-06
                       Mass of water (kg)  =   1.000e+00
                 Total alkalinity (eq/kg)  =   2.208e-10
                    Total carbon (mol/kg)  =   0.000e+00
                       Total CO2 (mol/kg)  =   0.000e+00
                      Temperature (deg C)  = 200.00
                           Pressure (atm)  = 15.38
                  Electrical balance (eq)  =  -2.208e-10
 Percent error, 100*(Cat-|An|)/(Cat+|An|)  =  -0.00
                               Iterations  =   9
                                  Total H  = 1.110124e+02
                                  Total O  = 5.550622e+01

----------------------------Distribution of species----------------------------

                                               Log       Log       Log    mole V
   Species          Molality    Activity  Molality  Activity     Gamma   cm3/mol

   OH-             2.283e-06   2.277e-06    -5.641    -5.643    -0.001    -30.33
   H+              2.283e-06   2.277e-06    -5.641    -5.643    -0.001      0.00
   H2O             5.551e+01   1.000e+00     1.744    -0.000     0.000     20.84
H(0)          2.103e-24
   H2              1.052e-24   1.052e-24   -23.978   -23.978     0.000     28.55
O(0)          2.863e-09
   O2              1.431e-09   1.431e-09    -8.844    -8.844     0.000     39.26

------------------------------Saturation indices-------------------------------

	Phase               SI   log IAP   log K(473 K,  15 atm)

	H2(g)           -21.17    -23.98   -2.81  H2
	H2O(g)            1.16     -0.00   -1.16  H2O
	O2(g)            -5.97     -8.84   -2.88  O2


Reaction step 18.

Using solution 1.	
Using temperature 1.	

----------------------------------User print-----------------------------------


-----------------------------Solution composition------------------------------

	Elements           Molality       Moles

	Pure water     

----------------------------Description of solution----------------------------

                                       pH  =   5.619      Charge balance
                                       pe  =   4.121      Adjusted to redox equilibrium
       Specific Conductance (uS/cm, 212 oC) = 9
                          Density (g/cm3)  =   0.84966
                        Activity of water  =   1.000
                           Ionic strength  =   2.415e-06
                       Mass of water (kg)  =   1.000e+00
                 Total alkalinity (eq/kg)  =   2.208e-10
                    Total carbon (mol/kg)  =   0.000e+00
                       Total CO2 (mol/kg)  =   0.000e+00
                      Temperature (deg C)  = 212.50
                           Pressure (atm)  = 19.83
                  Electrical balance (eq)  =  -2.208e-10
 Percent error, 100*(Cat-|An|)/(Cat+|An|)  =  -0.00
                               Iterations  =  13
                                  Total H  = 1.110124e+02
                                  Total O  = 5.550622e+01

----------------------------Distribution of species----------------------------

                                               Log       Log       Log    mole V
   Species          Molality    Activity  Molality  Activity     Gamma   cm3/mol

   OH-             2.415e-06   2.407e-06    -5.617    -5.618    -0.001    -37.39
   H+              2.414e-06   2.407e-06    -5.617    -5.619    -0.001      0.00
   H2O             5.551e+01   1.000e+00     1.744    -0.000     0.000     21.20
H(0)          1.477e-23
   H2              7.383e-24   7.383e-24   -23.132   -23.132     0.000     28.54
O(0)          2.099e-09
   O2              1.049e-09   1.049e-09    -8.979    -8.979     0.000     40.56

------------------------------Saturation indices-------------------------------

	Phase               SI   log IAP   log K(485 K,  20 atm)

	H2(g)           -20.37    -23.13   -2.76  H2
	H2O(g)            1.26     -0.00   -1.26  H2O
	O2(g)            -6.16     -8.98   -2.82  O2


Reaction step 19.

Using solution 1.	
Using temperature 1.	

----------------------------------User print-----------------------------------


-----------------------------Solution composition------------------------------

	Elements           Molality       Moles

	Pure water     

----------------------------Description of solution----------------------------

                                       pH  =   5.601      Charge balance
                                       pe  =   3.813      Adjusted to redox equilibrium
       Specific Conductance (uS/cm, 225 oC) = 10
                          Density (g/cm3)  =   0.83376
                        Activity of water  =   1.000
                           Ionic strength  =   2.517e-06
                       Mass of water (kg)  =   1.000e+00
                 Total alkalinity (eq/kg)  =   2.208e-10
                    Total carbon (mol/kg)  =   0.000e+00
                       Total CO2 (mol/kg)  =   0.000e+00
                      Temperature (deg C)  = 225.00
                           Pressure (atm)  = 25.21
                  Electrical balance (eq)  =  -2.208e-10
 Percent error, 100*(Cat-|An|)/(Cat+|An|)  =  -0.00
                               Iterations  =  16
                                  Total H  = 1.110124e+02
                                  Total O  = 5.550622e+01

----------------------------Distribution of species----------------------------

                                               Log       Log       Log    mole V
   Species          Molality    Activity  Molality  Activity     Gamma   cm3/mol

   OH-             2.517e-06   2.509e-06    -5.599    -5.601    -0.001    -46.35
   H+              2.517e-06   2.509e-06    -5.599    -5.601    -0.001      0.00
   H2O             5.551e+01   1.000e+00     1.744    -0.000     0.000     21.61
H(0)          6.301e-23
   H2              3.150e-23   3.150e-23   -22.502   -22.502     0.000     28.54
O(0)          3.475e-09
   O2              1.738e-09   1.738e-09    -8.760    -8.760     0.000     42.18

------------------------------Saturation indices-------------------------------

	Phase               SI   log IAP   log K(498 K,  25 atm)

	H2(g)           -19.79    -22.50   -2.71  H2
	H2O(g)            1.36     -0.00   -1.36  H2O
	O2(g)            -5.99     -8.76   -2.77  O2


Reaction step 20.

Using solution 1.	
Using temperature 1.	

----------------------------------User print-----------------------------------


-----------------------------Solution composition------------------------------

	Elements           Molality       Moles

	Pure water     

----------------------------Description of solution----------------------------

                                       pH  =   5.588      Charge balance
                                       pe  =   3.499      Adjusted to redox equilibrium
       Specific Conductance (uS/cm, 237 oC) = 11
                          Density (g/cm3)  =   0.81687
                        Activity of water  =   1.000
                           Ionic strength  =   2.589e-06
                       Mass of water (kg)  =   1.000e+00
                 Total alkalinity (eq/kg)  =   2.208e-10
                    Total carbon (mol/kg)  =   0.000e+00
                       Total CO2 (mol/kg)  =   0.000e+00
                      Temperature (deg C)  = 237.50
                           Pressure (atm)  = 31.64
                  Electrical balance (eq)  =  -2.208e-10
 Percent error, 100*(Cat-|An|)/(Cat+|An|)  =  -0.00
                               Iterations  =  19
                                  Total H  = 1.110124e+02
                                  Total O  = 5.550622e+01

----------------------------Distribution of species----------------------------

                                               Log       Log       Log    mole V
   Species          Molality    Activity  Molality  Activity     Gamma   cm3/mol

   OH-             2.589e-06   2.580e-06    -5.587    -5.588    -0.001    -57.85
   H+              2.589e-06   2.580e-06    -5.587    -5.588    -0.001      0.00
   H2O             5.551e+01   1.000e+00     1.744    -0.000     0.000     22.05
H(0)          2.693e-22
   H2              1.346e-22   1.346e-22   -21.871   -21.871     0.000     28.54
O(0)          4.845e-09
   O2              2.422e-09   2.422e-09    -8.616    -8.616     0.000     44.24

------------------------------Saturation indices-------------------------------

	Phase               SI   log IAP   log K(510 K,  32 atm)

	H2(g)           -19.21    -21.87   -2.66  H2
	H2O(g)            1.45     -0.00   -1.45  H2O
	O2(g)            -5.90     -8.62   -2.71  O2


Reaction step 21.

Using solution 1.	
Using temperature 1.	

----------------------------------User print-----------------------------------


-----------------------------Solution composition------------------------------

	Elements           Molality       Moles

	Pure water     

----------------------------Description of solution----------------------------

                                       pH  =   5.581      Charge balance
                                       pe  =   3.072      Adjusted to redox equilibrium
       Specific Conductance (uS/cm, 250 oC) = 12
                          Density (g/cm3)  =   0.79889
                        Activity of water  =   1.000
                           Ionic strength  =   2.633e-06
                       Mass of water (kg)  =   1.000e+00
                 Total alkalinity (eq/kg)  =   2.208e-10
                    Total carbon (mol/kg)  =   0.000e+00
                       Total CO2 (mol/kg)  =   0.000e+00
                      Temperature (deg C)  = 250.00
                           Pressure (atm)  = 39.24
                  Electrical balance (eq)  =  -2.208e-10
 Percent error, 100*(Cat-|An|)/(Cat+|An|)  =  -0.00
                               Iterations  =  23
                                  Total H  = 1.110124e+02
                                  Total O  = 5.550622e+01

----------------------------Distribution of species----------------------------

                                               Log       Log       Log    mole V
   Species          Molality    Activity  Molality  Activity     Gamma   cm3/mol

   OH-             2.633e-06   2.624e-06    -5.579    -5.581    -0.002    -72.87
   H+              2.633e-06   2.624e-06    -5.580    -5.581    -0.002      0.00
   H2O             5.551e+01   1.000e+00     1.744    -0.000     0.000     22.55
H(0)          1.900e-21
   H2              9.502e-22   9.502e-22   -21.022   -21.022     0.000     28.53
O(0)          2.117e-09
   O2              1.059e-09   1.059e-09    -8.975    -8.975     0.000     46.90

------------------------------Saturation indices-------------------------------

	Phase               SI   log IAP   log K(523 K,  39 atm)

	H2(g)           -18.41    -21.02   -2.61  H2
	H2O(g)            1.53     -0.00   -1.53  H2O
	O2(g)            -6.32     -8.98   -2.65  O2


------------------
End of simulation.
------------------

------------------------------------
Reading input data for simulation 2.
------------------------------------

	PRINT
	 user_print false
	SOLUTION 1
	 Na 0.6
	 S(6) 0.2 charge
	USE reaction_temperature 1
	USER_GRAPH 3
	 -chart_title Na2SO4
	 -plot_csv_file mV_SO4_rho.dat
	-headings Millero # Monnin_model
	-axis_scale x_axis 270 520
	-axis_scale y_axis -80 20
	-connect false
	-axis_titles "Temperature / K" "molar Volume / cm3/mol"
	 200 mV = (1e3 + tot("S(6)") * (2 * 22.989 + 1 * 96.064)) / (tot("S(6)") * rho) - 1e3 / (tot("S(6)") * get(step_no))
	 230 plot_xy tk, mV, color = Red, symbol = None
	 40 a1 = 1.281259e3
	 42 a2 = -3.292342
	   44 a3 = -1.231424e5
	 46 a4 = 0.0
	 48 a5 = 0.0
	 50 a6 = 4.267199e-3
	52 a7 = -9.132116e4
	 54 a8 = -1.067946e3
	 56 a9 = 0.0
	 58 a10 = 0.0
	 60 y = a1 + TK * (a2 + TK * (a6 + TK * (a9 + TK * a10))) + a3/TK + a4*log(TK) +        a5/(TK-263) + a7/(680-TK) + a8/(TK-227)
	END
-------------------------------------------
Beginning of initial solution calculations.
-------------------------------------------

Initial solution 1.	

-----------------------------Solution composition------------------------------

	Elements           Molality       Moles

	Na                6.000e-04   6.000e-04
	S(6)              3.000e-04   3.000e-04  Charge balance

----------------------------Description of solution----------------------------

                                       pH  =   7.000    
                                       pe  =   4.000    
       Specific Conductance (uS/cm, 25 oC) = 74
                          Density (g/cm3)  =   0.99709
                        Activity of water  =   1.000
                           Ionic strength  =   8.985e-04
                       Mass of water (kg)  =   1.000e+00
                 Total alkalinity (eq/kg)  =  -2.229e-09
                    Total carbon (mol/kg)  =   0.000e+00
                       Total CO2 (mol/kg)  =   0.000e+00
                      Temperature (deg C)  =  25.00
                  Electrical balance (eq)  =  -3.652e-14
 Percent error, 100*(Cat-|An|)/(Cat+|An|)  =  -0.00
                               Iterations  =   8
                                  Total H  = 1.110124e+02
                                  Total O  = 5.550742e+01

----------------------------Distribution of species----------------------------

                                               Log       Log       Log    mole V
   Species          Molality    Activity  Molality  Activity     Gamma   cm3/mol

   OH-             1.037e-07   1.002e-07    -6.984    -6.999    -0.015     -4.08
   H+              1.033e-07   1.000e-07    -6.986    -7.000    -0.014      0.00
   H2O             5.551e+01   1.000e+00     1.744    -0.000     0.000     18.07
H(0)          1.416e-25
   H2              7.078e-26   7.079e-26   -25.150   -25.150     0.000     28.61
Na            6.000e-04
   Na+             5.992e-04   5.793e-04    -3.222    -3.237    -0.015     -1.18
   NaSO4-          7.858e-07   7.596e-07    -6.105    -6.119    -0.015     16.67
   NaOH            5.805e-21   5.806e-21   -20.236   -20.236     0.000     (0)  
O(0)          0.000e+00
   O2              0.000e+00   0.000e+00   -42.080   -42.080     0.000     30.40
S(6)          3.000e-04
   SO4-2           2.992e-04   2.616e-04    -3.524    -3.582    -0.058     14.09
   NaSO4-          7.858e-07   7.596e-07    -6.105    -6.119    -0.015     16.67
   HSO4-           2.631e-09   2.544e-09    -8.580    -8.595    -0.015     35.17

------------------------------Saturation indices-------------------------------

	Phase               SI   log IAP   log K(298 K,   1 atm)

	H2(g)           -22.05    -25.15   -3.10  H2
	H2O(g)           -1.50     -0.00    1.50  H2O
	O2(g)           -39.19    -42.08   -2.89  O2


-----------------------------------------
Beginning of batch-reaction calculations.
-----------------------------------------

Reaction step 1.

Using solution 1.	
Using temperature 1.	

-----------------------------Solution composition------------------------------

	Elements           Molality       Moles

	Na                6.000e-04   6.000e-04
	S                 3.000e-04   3.000e-04

----------------------------Description of solution----------------------------

                                       pH  =   7.469      Charge balance
                                       pe  =  -1.438      Adjusted to redox equilibrium
       Specific Conductance (uS/cm, 0 oC) = 37
                          Density (g/cm3)  =   0.99989
                        Activity of water  =   1.000
                           Ionic strength  =   8.987e-04
                       Mass of water (kg)  =   1.000e+00
                 Total alkalinity (eq/kg)  =  -2.229e-09
                    Total carbon (mol/kg)  =   0.000e+00
                       Total CO2 (mol/kg)  =   0.000e+00
                      Temperature (deg C)  =   0.00
                  Electrical balance (eq)  =  -3.566e-14
 Percent error, 100*(Cat-|An|)/(Cat+|An|)  =  -0.00
                               Iterations  =   9
                                  Total H  = 1.110124e+02
                                  Total O  = 5.550742e+01

----------------------------Distribution of species----------------------------

                                               Log       Log       Log    mole V
   Species          Molality    Activity  Molality  Activity     Gamma   cm3/mol

   H+              3.504e-08   3.397e-08    -7.455    -7.469    -0.014      0.00
   OH-             3.337e-08   3.229e-08    -7.477    -7.491    -0.014     -6.60
   H2O             5.551e+01   1.000e+00     1.744    -0.000     0.000     18.02
H(0)          1.614e-15
   H2              8.069e-16   8.070e-16   -15.093   -15.093     0.000     28.65
Na            6.000e-04
   Na+             5.993e-04   5.802e-04    -3.222    -3.236    -0.014     -3.44
   NaSO4-          6.646e-07   6.433e-07    -6.177    -6.192    -0.014     16.17
   NaOH            1.873e-21   1.874e-21   -20.727   -20.727     0.000     (0)  
O(0)          0.000e+00
   O2              0.000e+00   0.000e+00   -71.000   -71.000     0.000     27.49
S(-2)         4.423e-22
   HS-             2.544e-22   2.462e-22   -21.595   -21.609    -0.014     18.41
   H2S             1.879e-22   1.880e-22   -21.726   -21.726     0.000     37.01
   S-2             1.537e-28   1.350e-28   -27.813   -27.870    -0.056     (0)  
S(6)          3.000e-04
   SO4-2           2.993e-04   2.630e-04    -3.524    -3.580    -0.056      9.35
   NaSO4-          6.646e-07   6.433e-07    -6.177    -6.192    -0.014     16.17
   HSO4-           5.538e-10   5.360e-10    -9.257    -9.271    -0.014     32.22

------------------------------Saturation indices-------------------------------

	Phase               SI   log IAP   log K(273 K,   1 atm)

	H2(g)           -12.08    -15.09   -3.01  H2
	H2O(g)           -2.21     -0.00    2.21  H2O
	H2S(g)          -21.01    -29.08   -8.07  H2S
	O2(g)           -68.34    -71.00   -2.66  O2
	Sulfur          -15.18     -9.66    5.52  S


Reaction step 2.

Using solution 1.	
Using temperature 1.	

-----------------------------Solution composition------------------------------

	Elements           Molality       Moles

	Na                6.000e-04   6.000e-04
	S                 3.000e-04   3.000e-04

----------------------------Description of solution----------------------------

                                       pH  =   7.219      Charge balance
                                       pe  =  -1.220      Adjusted to redox equilibrium
       Specific Conductance (uS/cm, 12 oC) = 54
                          Density (g/cm3)  =   0.99948
                        Activity of water  =   1.000
                           Ionic strength  =   8.986e-04
                       Mass of water (kg)  =   1.000e+00
                 Total alkalinity (eq/kg)  =  -2.229e-09
                    Total carbon (mol/kg)  =   0.000e+00
                       Total CO2 (mol/kg)  =   0.000e+00
                      Temperature (deg C)  =  12.50
                  Electrical balance (eq)  =  -3.635e-14
 Percent error, 100*(Cat-|An|)/(Cat+|An|)  =  -0.00
                               Iterations  =   9
                                  Total H  = 1.110124e+02
                                  Total O  = 5.550742e+01

----------------------------Distribution of species----------------------------

                                               Log       Log       Log    mole V
   Species          Molality    Activity  Molality  Activity     Gamma   cm3/mol

   H+              6.227e-08   6.033e-08    -7.206    -7.219    -0.014      0.00
   OH-             6.127e-08   5.926e-08    -7.213    -7.227    -0.014     -4.94
   H2O             5.551e+01   1.000e+00     1.744    -0.000     0.000     18.03
H(0)          1.614e-15
   H2              8.070e-16   8.072e-16   -15.093   -15.093     0.000     28.62
Na            6.000e-04
   Na+             5.993e-04   5.798e-04    -3.222    -3.237    -0.014     -2.19
   NaSO4-          7.256e-07   7.019e-07    -6.139    -6.154    -0.014     16.48
   NaOH            3.435e-21   3.436e-21   -20.464   -20.464     0.000     (0)  
O(0)          0.000e+00
   O2              0.000e+00   0.000e+00   -66.405   -66.405     0.000     29.24
S(-2)         1.109e-23
   HS-             6.239e-24   6.035e-24   -23.205   -23.219    -0.014     19.83
   H2S             4.850e-24   4.851e-24   -23.314   -23.314     0.000     37.10
   S-2             5.638e-30   4.943e-30   -29.249   -29.306    -0.057     (0)  
S(6)          3.000e-04
   SO4-2           2.993e-04   2.624e-04    -3.524    -3.581    -0.057     12.31
   NaSO4-          7.256e-07   7.019e-07    -6.139    -6.154    -0.014     16.48
   HSO4-           1.229e-09   1.189e-09    -8.910    -8.925    -0.014     34.08

------------------------------Saturation indices-------------------------------

	Phase               SI   log IAP   log K(285 K,   1 atm)

	H2(g)           -12.03    -15.09   -3.06  H2
	H2O(g)           -1.84     -0.00    1.84  H2O
	H2S(g)          -22.41    -30.44   -8.03  H2S
	O2(g)           -63.61    -66.40   -2.79  O2
	Sulfur          -16.50    -11.31    5.19  S


Reaction step 3.

Using solution 1.	
Using temperature 1.	

-----------------------------Solution composition------------------------------

	Elements           Molality       Moles

	Na                6.000e-04   6.000e-04
	S                 3.000e-04   3.000e-04

----------------------------Description of solution----------------------------

                                       pH  =   7.000      Charge balance
                                       pe  =  -1.028      Adjusted to redox equilibrium
       Specific Conductance (uS/cm, 25 oC) = 74
                          Density (g/cm3)  =   0.99709
                        Activity of water  =   1.000
                           Ionic strength  =   8.985e-04
                       Mass of water (kg)  =   1.000e+00
                 Total alkalinity (eq/kg)  =  -2.229e-09
                    Total carbon (mol/kg)  =   0.000e+00
                       Total CO2 (mol/kg)  =   0.000e+00
                      Temperature (deg C)  =  25.00
                  Electrical balance (eq)  =  -3.731e-14
 Percent error, 100*(Cat-|An|)/(Cat+|An|)  =  -0.00
                               Iterations  =   9
                                  Total H  = 1.110124e+02
                                  Total O  = 5.550742e+01

----------------------------Distribution of species----------------------------

                                               Log       Log       Log    mole V
   Species          Molality    Activity  Molality  Activity     Gamma   cm3/mol

   OH-             1.037e-07   1.002e-07    -6.984    -6.999    -0.015     -4.08
   H+              1.033e-07   1.000e-07    -6.986    -7.000    -0.014      0.00
   H2O             5.551e+01   1.000e+00     1.744    -0.000     0.000     18.07
H(0)          1.614e-15
   H2              8.069e-16   8.071e-16   -15.093   -15.093     0.000     28.61
Na            6.000e-04
   Na+             5.992e-04   5.793e-04    -3.222    -3.237    -0.015     -1.18
   NaSO4-          7.858e-07   7.596e-07    -6.105    -6.119    -0.015     16.67
   NaOH            5.805e-21   5.806e-21   -20.236   -20.236     0.000     (0)  
O(0)          0.000e+00
   O2              0.000e+00   0.000e+00   -62.194   -62.194     0.000     30.40
S(-2)         3.768e-25
   HS-             2.042e-25   1.974e-25   -24.690   -24.705    -0.015     20.60
   H2S             1.725e-25   1.726e-25   -24.763   -24.763     0.000     37.16
   S-2             2.727e-31   2.384e-31   -30.564   -30.623    -0.058     (0)  
S(6)          3.000e-04
   SO4-2           2.992e-04   2.616e-04    -3.524    -3.582    -0.058     14.09
   NaSO4-          7.858e-07   7.596e-07    -6.105    -6.119    -0.015     16.67
   HSO4-           2.631e-09   2.544e-09    -8.580    -8.595    -0.015     35.17

------------------------------Saturation indices-------------------------------

	Phase               SI   log IAP   log K(298 K,   1 atm)

	H2(g)           -11.99    -15.09   -3.10  H2
	H2O(g)           -1.50     -0.00    1.50  H2O
	H2S(g)          -23.71    -31.70   -7.99  H2S
	O2(g)           -59.30    -62.19   -2.89  O2
	Sulfur          -17.70    -12.82    4.88  S


Reaction step 4.

Using solution 1.	
Using temperature 1.	

-----------------------------Solution composition------------------------------

	Elements           Molality       Moles

	Na                6.000e-04   6.000e-04
	S                 3.000e-04   3.000e-04

----------------------------Description of solution----------------------------

                                       pH  =   6.807      Charge balance
                                       pe  =  -0.862      Adjusted to redox equilibrium
       Specific Conductance (uS/cm, 37 oC) = 97
                          Density (g/cm3)  =   0.99319
                        Activity of water  =   1.000
                           Ionic strength  =   8.985e-04
                       Mass of water (kg)  =   1.000e+00
                 Total alkalinity (eq/kg)  =  -2.229e-09
                    Total carbon (mol/kg)  =   0.000e+00
                       Total CO2 (mol/kg)  =   0.000e+00
                      Temperature (deg C)  =  37.50
                  Electrical balance (eq)  =  -4.175e-14
 Percent error, 100*(Cat-|An|)/(Cat+|An|)  =  -0.00
                               Iterations  =   9
                                  Total H  = 1.110124e+02
                                  Total O  = 5.550742e+01

----------------------------Distribution of species----------------------------

                                               Log       Log       Log    mole V
   Species          Molality    Activity  Molality  Activity     Gamma   cm3/mol

   OH-             1.643e-07   1.587e-07    -6.784    -6.799    -0.015     -3.71
   H+              1.611e-07   1.559e-07    -6.793    -6.807    -0.014      0.00
   H2O             5.551e+01   1.000e+00     1.744    -0.000     0.000     18.14
H(0)          1.614e-15
   H2              8.069e-16   8.070e-16   -15.093   -15.093     0.000     28.60
Na            6.000e-04
   Na+             5.992e-04   5.789e-04    -3.222    -3.237    -0.015     -0.41
   NaSO4-          8.451e-07   8.163e-07    -6.073    -6.088    -0.015     16.79
   NaOH            9.184e-21   9.186e-21   -20.037   -20.037     0.000     (0)  
O(0)          0.000e+00
   O2              0.000e+00   0.000e+00   -58.322   -58.322     0.000     31.25
S(-2)         1.675e-26
   HS-             8.618e-27   8.324e-27   -26.065   -26.080    -0.015     21.00
   H2S             8.135e-27   8.137e-27   -26.090   -26.090     0.000     37.21
   S-2             1.683e-32   1.467e-32   -31.774   -31.834    -0.060     (0)  
S(6)          3.000e-04
   SO4-2           2.992e-04   2.608e-04    -3.524    -3.584    -0.060     14.68
   NaSO4-          8.451e-07   8.163e-07    -6.073    -6.088    -0.015     16.79
   HSO4-           5.444e-09   5.259e-09    -8.264    -8.279    -0.015     35.81

------------------------------Saturation indices-------------------------------

	Phase               SI   log IAP   log K(310 K,   1 atm)

	H2(g)           -11.97    -15.09   -3.12  H2
	H2O(g)           -1.20     -0.00    1.20  H2O
	H2S(g)          -24.92    -32.89   -7.97  H2S
	O2(g)           -55.35    -58.32   -2.97  O2
	Sulfur          -18.80    -14.20    4.60  S


Reaction step 5.

Using solution 1.	
Using temperature 1.	

-----------------------------Solution composition------------------------------

	Elements           Molality       Moles

	Na                6.000e-04   6.000e-04
	S                 3.000e-04   3.000e-04

----------------------------Description of solution----------------------------

                                       pH  =   6.638      Charge balance
                                       pe  =  -0.717      Adjusted to redox equilibrium
       Specific Conductance (uS/cm, 50 oC) = 121
                          Density (g/cm3)  =   0.98809
                        Activity of water  =   1.000
                           Ionic strength  =   8.984e-04
                       Mass of water (kg)  =   1.000e+00
                 Total alkalinity (eq/kg)  =  -2.229e-09
                    Total carbon (mol/kg)  =   0.000e+00
                       Total CO2 (mol/kg)  =   0.000e+00
                      Temperature (deg C)  =  50.00
                  Electrical balance (eq)  =  -7.183e-14
 Percent error, 100*(Cat-|An|)/(Cat+|An|)  =  -0.00
                               Iterations  =   9
                                  Total H  = 1.110124e+02
                                  Total O  = 5.550742e+01

----------------------------Distribution of species----------------------------

                                               Log       Log       Log    mole V
   Species          Molality    Activity  Molality  Activity     Gamma   cm3/mol

   OH-             2.466e-07   2.380e-07    -6.608    -6.623    -0.015     -3.68
   H+              2.380e-07   2.300e-07    -6.623    -6.638    -0.015      0.00
   H2O             5.551e+01   1.000e+00     1.744    -0.000     0.000     18.23
H(0)          1.614e-15
   H2              8.070e-16   8.072e-16   -15.093   -15.093     0.000     28.59
Na            6.000e-04
   Na+             5.991e-04   5.783e-04    -3.223    -3.238    -0.015      0.12
   NaSO4-          9.032e-07   8.717e-07    -6.044    -6.060    -0.015     16.87
   NaOH            1.376e-20   1.376e-20   -19.861   -19.861     0.000     (0)  
O(0)          0.000e+00
   O2              0.000e+00   0.000e+00   -54.750   -54.750     0.000     31.92
S(-2)         9.477e-28
   H2S             4.922e-28   4.923e-28   -27.308   -27.308     0.000     37.24
   HS-             4.556e-28   4.396e-28   -27.341   -27.357    -0.015     21.13
   S-2             1.290e-33   1.120e-33   -32.890   -32.951    -0.061     (0)  
S(6)          3.000e-04
   SO4-2           2.991e-04   2.598e-04    -3.524    -3.585    -0.061     14.08
   NaSO4-          9.032e-07   8.717e-07    -6.044    -6.060    -0.015     16.87
   HSO4-           1.092e-08   1.054e-08    -7.962    -7.977    -0.015     36.15

------------------------------Saturation indices-------------------------------

	Phase               SI   log IAP   log K(323 K,   1 atm)

	H2(g)           -11.96    -15.09   -3.14  H2
	H2O(g)           -0.92     -0.00    0.92  H2O
	H2S(g)          -26.05    -34.00   -7.95  H2S
	O2(g)           -51.72    -54.75   -3.03  O2
	Sulfur          -19.81    -15.46    4.34  S


Reaction step 6.

Using solution 1.	
Using temperature 1.	

-----------------------------Solution composition------------------------------

	Elements           Molality       Moles

	Na                6.000e-04   6.000e-04
	S                 3.000e-04   3.000e-04

----------------------------Description of solution----------------------------

                                       pH  =   6.490      Charge balance
                                       pe  =  -0.591      Adjusted to redox equilibrium
       Specific Conductance (uS/cm, 62 oC) = 148
                          Density (g/cm3)  =   0.98194
                        Activity of water  =   1.000
                           Ionic strength  =   8.984e-04
                       Mass of water (kg)  =   1.000e+00
                 Total alkalinity (eq/kg)  =  -2.229e-09
                    Total carbon (mol/kg)  =   0.000e+00
                       Total CO2 (mol/kg)  =   0.000e+00
                      Temperature (deg C)  =  62.50
                  Electrical balance (eq)  =  -5.653e-13
 Percent error, 100*(Cat-|An|)/(Cat+|An|)  =  -0.00
                               Iterations  =   9
                                  Total H  = 1.110124e+02
                                  Total O  = 5.550742e+01

----------------------------Distribution of species----------------------------

                                               Log       Log       Log    mole V
   Species          Molality    Activity  Molality  Activity     Gamma   cm3/mol

   OH-             3.539e-07   3.412e-07    -6.451    -6.467    -0.016     -3.93
   H+              3.349e-07   3.234e-07    -6.475    -6.490    -0.015      0.00
   H2O             5.551e+01   1.000e+00     1.744    -0.000     0.000     18.35
H(0)          1.614e-15
   H2              8.071e-16   8.073e-16   -15.093   -15.093     0.000     28.58
Na            6.000e-04
   Na+             5.990e-04   5.777e-04    -3.223    -3.238    -0.016      0.41
   NaSO4-          9.600e-07   9.256e-07    -6.018    -6.034    -0.016     16.92
   NaOH            1.971e-20   1.971e-20   -19.705   -19.705     0.000     (0)  
O(0)          0.000e+00
   O2              0.000e+00   0.000e+00   -51.444   -51.444     0.000     32.49
S(-2)         6.650e-29
   H2S             3.712e-29   3.712e-29   -28.430   -28.430     0.000     37.26
   HS-             2.938e-29   2.832e-29   -28.532   -28.548    -0.016     21.06
   S-2             1.196e-34   1.036e-34   -33.922   -33.985    -0.063     (0)  
S(6)          3.000e-04
   SO4-2           2.990e-04   2.588e-04    -3.524    -3.587    -0.063     12.29
   NaSO4-          9.600e-07   9.256e-07    -6.018    -6.034    -0.016     16.92
   HSO4-           2.126e-08   2.050e-08    -7.673    -7.688    -0.016     36.28

------------------------------Saturation indices-------------------------------

	Phase               SI   log IAP   log K(335 K,   1 atm)

	H2(g)           -11.95    -15.09   -3.14  H2
	H2O(g)           -0.66     -0.00    0.66  H2O
	H2S(g)          -27.10    -35.04   -7.94  H2S
	O2(g)           -48.37    -51.44   -3.07  O2
	Sulfur          -20.74    -16.63    4.10  S


Reaction step 7.

Using solution 1.	
Using temperature 1.	

-----------------------------Solution composition------------------------------

	Elements           Molality       Moles

	Na                6.000e-04   6.000e-04
	S                 3.000e-04   3.000e-04

----------------------------Description of solution----------------------------

                                       pH  =   6.361      Charge balance
                                       pe  =  -0.482      Adjusted to redox equilibrium
       Specific Conductance (uS/cm, 75 oC) = 175
                          Density (g/cm3)  =   0.97490
                        Activity of water  =   1.000
                           Ionic strength  =   8.984e-04
                       Mass of water (kg)  =   1.000e+00
                 Total alkalinity (eq/kg)  =  -2.229e-09
                    Total carbon (mol/kg)  =   0.000e+00
                       Total CO2 (mol/kg)  =   0.000e+00
                      Temperature (deg C)  =  75.00
                  Electrical balance (eq)  =  -3.648e-14
 Percent error, 100*(Cat-|An|)/(Cat+|An|)  =  -0.00
                               Iterations  =  10
                                  Total H  = 1.110124e+02
                                  Total O  = 5.550742e+01

----------------------------Distribution of species----------------------------

                                               Log       Log       Log    mole V
   Species          Molality    Activity  Molality  Activity     Gamma   cm3/mol

   OH-             4.891e-07   4.710e-07    -6.311    -6.327    -0.016     -4.43
   H+              4.511e-07   4.352e-07    -6.346    -6.361    -0.016      0.00
   H2O             5.551e+01   1.000e+00     1.744    -0.000     0.000     18.48
H(0)          1.614e-15
   H2              8.069e-16   8.071e-16   -15.093   -15.093     0.000     28.58
Na            6.000e-04
   Na+             5.990e-04   5.771e-04    -3.223    -3.239    -0.016      0.46
   NaSO4-          1.015e-06   9.778e-07    -5.993    -6.010    -0.016     16.94
   NaOH            2.718e-20   2.718e-20   -19.566   -19.566     0.000     (0)  
O(0)          0.000e+00
   O2              0.000e+00   0.000e+00   -48.375   -48.375     0.000     32.99
S(-2)         5.657e-30
   H2S             3.399e-30   3.400e-30   -29.469   -29.469     0.000     37.28
   HS-             2.258e-30   2.175e-30   -29.646   -29.663    -0.016     20.82
   S-2             1.315e-35   1.134e-35   -34.881   -34.946    -0.064     (0)  
S(6)          3.000e-04
   SO4-2           2.989e-04   2.577e-04    -3.524    -3.589    -0.064      9.32
   NaSO4-          1.015e-06   9.778e-07    -5.993    -6.010    -0.016     16.94
   HSO4-           4.025e-08   3.877e-08    -7.395    -7.411    -0.016     36.22

------------------------------Saturation indices-------------------------------

	Phase               SI   log IAP   log K(348 K,   1 atm)

	H2(g)           -11.96    -15.09   -3.13  H2
	H2O(g)           -0.42     -0.00    0.42  H2O
	H2S(g)          -28.09    -36.02   -7.93  H2S
	O2(g)           -45.28    -48.38   -3.10  O2
	Sulfur          -21.59    -17.71    3.88  S


Reaction step 8.

Using solution 1.	
Using temperature 1.	

-----------------------------Solution composition------------------------------

	Elements           Molality       Moles

	Na                6.000e-04   6.000e-04
	S                 3.000e-04   3.000e-04

----------------------------Description of solution----------------------------

                                       pH  =   6.250      Charge balance
                                       pe  =  -0.390      Adjusted to redox equilibrium
       Specific Conductance (uS/cm, 87 oC) = 204
                          Density (g/cm3)  =   0.96703
                        Activity of water  =   1.000
                           Ionic strength  =   8.984e-04
                       Mass of water (kg)  =   1.000e+00
                 Total alkalinity (eq/kg)  =  -2.229e-09
                    Total carbon (mol/kg)  =   0.000e+00
                       Total CO2 (mol/kg)  =   0.000e+00
                      Temperature (deg C)  =  87.50
                  Electrical balance (eq)  =  -3.505e-14
 Percent error, 100*(Cat-|An|)/(Cat+|An|)  =  -0.00
                               Iterations  =  10
                                  Total H  = 1.110124e+02
                                  Total O  = 5.550742e+01

----------------------------Distribution of species----------------------------

                                               Log       Log       Log    mole V
   Species          Molality    Activity  Molality  Activity     Gamma   cm3/mol

   OH-             6.554e-07   6.305e-07    -6.183    -6.200    -0.017     -5.18
   H+              5.835e-07   5.624e-07    -6.234    -6.250    -0.016      0.00
   H2O             5.551e+01   1.000e+00     1.744    -0.000     0.000     18.63
H(0)          1.614e-15
   H2              8.071e-16   8.073e-16   -15.093   -15.093     0.000     28.57
Na            6.000e-04
   Na+             5.989e-04   5.764e-04    -3.223    -3.239    -0.017      0.27
   NaSO4-          1.069e-06   1.028e-06    -5.971    -5.988    -0.017     16.94
   NaOH            3.633e-20   3.634e-20   -19.440   -19.440     0.000     (0)  
O(0)          0.000e+00
   O2              0.000e+00   0.000e+00   -45.519   -45.519     0.000     33.45
S(-2)         5.740e-31
   H2S             3.704e-31   3.705e-31   -30.431   -30.431     0.000     37.29
   HS-             2.035e-31   1.958e-31   -30.691   -30.708    -0.017     20.40
[...]

----------------------------Distribution of species----------------------------

                                               Log       Log       Log    mole V
   Species          Molality    Activity  Molality  Activity     Gamma   cm3/mol

   OH-             4.357e-06   4.137e-06    -5.361    -5.383    -0.022    -24.52
   H+              1.141e-06   1.087e-06    -5.943    -5.964    -0.021      0.00
   H2O             5.551e+01   1.000e+00     1.744    -0.000     0.000     20.50
H(0)          4.948e-25
   H2              2.474e-25   2.475e-25   -24.607   -24.606     0.000     28.55
Na            6.000e-04
   Na+             5.986e-04   5.688e-04    -3.223    -3.245    -0.022     -8.98
   NaSO4-          1.381e-06   1.312e-06    -5.860    -5.882    -0.022     96.24
   NaOH            2.330e-19   2.331e-19   -18.633   -18.632     0.000     (0)  
O(0)          1.175e-09
   O2              5.876e-10   5.877e-10    -9.231    -9.231     0.000     38.19
S(-2)         0.000e+00
   H2S             0.000e+00   0.000e+00   -74.510   -74.510     0.000     37.34
   HS-             0.000e+00   0.000e+00   -75.459   -75.482    -0.022      8.33
   S-2             0.000e+00   0.000e+00   -79.218   -79.306    -0.088     (0)  
S(6)          3.000e-04
   SO4-2           2.954e-04   2.411e-04    -3.530    -3.618    -0.088     33.68
   HSO4-           3.218e-06   3.056e-06    -5.492    -5.515    -0.022     26.62
   NaSO4-          1.381e-06   1.312e-06    -5.860    -5.882    -0.022     96.24

------------------------------Saturation indices-------------------------------

	Phase               SI   log IAP   log K(460 K,  12 atm)

	H2(g)           -21.75    -24.61   -2.85  H2
	H2O(g)            1.04     -0.00   -1.04  H2O
	H2S(g)          -73.24    -81.45   -8.21  H2S
	O2(g)            -6.31     -9.23   -2.92  O2
	Sulfur          -55.94    -53.51    2.43  S


Reaction step 17.

Using solution 1.	
Using temperature 1.	

-----------------------------Solution composition------------------------------

	Elements           Molality       Moles

	Na                6.000e-04   6.000e-04
	S                 3.000e-04   3.000e-04

----------------------------Description of solution----------------------------

                                       pH  =   6.001      Charge balance
                                       pe  =   4.173      Adjusted to redox equilibrium
       Specific Conductance (uS/cm, 200 oC) = 504
                          Density (g/cm3)  =   0.86470
                        Activity of water  =   1.000
                           Ionic strength  =   8.938e-04
                       Mass of water (kg)  =   1.000e+00
                 Total alkalinity (eq/kg)  =  -2.229e-09
                    Total carbon (mol/kg)  =   0.000e+00
                       Total CO2 (mol/kg)  =   0.000e+00
                      Temperature (deg C)  = 200.00
                           Pressure (atm)  = 15.38
                  Electrical balance (eq)  =  -3.652e-14
 Percent error, 100*(Cat-|An|)/(Cat+|An|)  =  -0.00
                               Iterations  =   9
                                  Total H  = 1.110124e+02
                                  Total O  = 5.550742e+01

----------------------------Distribution of species----------------------------

                                               Log       Log       Log    mole V
   Species          Molality    Activity  Molality  Activity     Gamma   cm3/mol

   OH-             5.480e-06   5.193e-06    -5.261    -5.285    -0.023    -30.12
   H+              1.050e-06   9.981e-07    -5.979    -6.001    -0.022      0.00
   H2O             5.551e+01   1.000e+00     1.744    -0.000     0.000     20.84
H(0)          2.103e-24
   H2              1.051e-24   1.052e-24   -23.978   -23.978     0.000     28.55
Na            6.000e-04
   Na+             5.986e-04   5.675e-04    -3.223    -3.246    -0.023     -8.98
   NaSO4-          1.400e-06   1.326e-06    -5.854    -5.877    -0.023     96.39
   NaOH            2.904e-19   2.905e-19   -18.537   -18.537     0.000     (0)  
O(0)          2.862e-09
   O2              1.431e-09   1.431e-09    -8.844    -8.844     0.000     39.26
S(-2)         0.000e+00
   H2S             0.000e+00   0.000e+00   -72.631   -72.630     0.000     37.33
   HS-             0.000e+00   0.000e+00   -73.651   -73.674    -0.023      4.78
   S-2             0.000e+00   0.000e+00   -77.218   -77.310    -0.092     (0)  
S(6)          3.000e-04
   SO4-2           2.942e-04   2.380e-04    -3.531    -3.623    -0.092     33.83
   HSO4-           4.432e-06   4.200e-06    -5.353    -5.377    -0.023     23.76
   NaSO4-          1.400e-06   1.326e-06    -5.854    -5.877    -0.023     96.39

------------------------------Saturation indices-------------------------------

	Phase               SI   log IAP   log K(473 K,  15 atm)

	H2(g)           -21.17    -23.98   -2.81  H2
	H2O(g)            1.16     -0.00   -1.16  H2O
	H2S(g)          -71.41    -79.67   -8.27  H2S
	O2(g)            -5.97     -8.84   -2.88  O2
	Sulfur          -54.60    -52.28    2.31  S


Reaction step 18.

Using solution 1.	
Using temperature 1.	

-----------------------------Solution composition------------------------------

	Elements           Molality       Moles

	Na                6.000e-04   6.000e-04
	S                 3.000e-04   3.000e-04

----------------------------Description of solution----------------------------

                                       pH  =   6.050      Charge balance
                                       pe  =   3.689      Adjusted to redox equilibrium
       Specific Conductance (uS/cm, 212 oC) = 540
                          Density (g/cm3)  =   0.84969
                        Activity of water  =   1.000
                           Ionic strength  =   8.922e-04
                       Mass of water (kg)  =   1.000e+00
                 Total alkalinity (eq/kg)  =  -2.229e-09
                    Total carbon (mol/kg)  =   0.000e+00
                       Total CO2 (mol/kg)  =   0.000e+00
                      Temperature (deg C)  = 212.50
                           Pressure (atm)  = 19.83
                  Electrical balance (eq)  =  -3.652e-14
 Percent error, 100*(Cat-|An|)/(Cat+|An|)  =  -0.00
                               Iterations  =  13
                                  Total H  = 1.110124e+02
                                  Total O  = 5.550742e+01

----------------------------Distribution of species----------------------------

                                               Log       Log       Log    mole V
   Species          Molality    Activity  Molality  Activity     Gamma   cm3/mol

   OH-             6.878e-06   6.503e-06    -5.163    -5.187    -0.024    -37.14
   H+              9.396e-07   8.910e-07    -6.027    -6.050    -0.023      0.00
   H2O             5.551e+01   1.000e+00     1.744    -0.000     0.000     21.20
H(0)          1.476e-23
   H2              7.382e-24   7.383e-24   -23.132   -23.132     0.000     28.54
Na            6.000e-04
   Na+             5.986e-04   5.661e-04    -3.223    -3.247    -0.024     -8.98
   NaSO4-          1.412e-06   1.335e-06    -5.850    -5.875    -0.024     96.66
   NaOH            3.601e-19   3.602e-19   -18.444   -18.443     0.000     (0)  
O(0)          2.098e-09
   O2              1.049e-09   1.049e-09    -8.979    -8.979     0.000     40.56
S(-2)         0.000e+00
   H2S             0.000e+00   0.000e+00   -69.860   -69.860     0.000     37.33
   HS-             0.000e+00   0.000e+00   -70.947   -70.972    -0.024      0.32
   S-2             0.000e+00   0.000e+00   -74.319   -74.415    -0.096     (0)  
S(6)          3.000e-04
   SO4-2           2.926e-04   2.346e-04    -3.534    -3.630    -0.096     34.02
   HSO4-           5.941e-06   5.617e-06    -5.226    -5.251    -0.024     20.15
   NaSO4-          1.412e-06   1.335e-06    -5.850    -5.875    -0.024     96.66

------------------------------Saturation indices-------------------------------

	Phase               SI   log IAP   log K(485 K,  20 atm)

	H2(g)           -20.37    -23.13   -2.76  H2
	H2O(g)            1.26     -0.00   -1.26  H2O
	H2S(g)          -68.68    -77.02   -8.34  H2S
	O2(g)            -6.16     -8.98   -2.82  O2
	Sulfur          -52.59    -50.38    2.20  S


Reaction step 19.

Using solution 1.	
Using temperature 1.	

-----------------------------Solution composition------------------------------

	Elements           Molality       Moles

	Na                6.000e-04   6.000e-04
	S                 3.000e-04   3.000e-04

----------------------------Description of solution----------------------------

                                       pH  =   6.110      Charge balance
                                       pe  =   3.303      Adjusted to redox equilibrium
       Specific Conductance (uS/cm, 225 oC) = 577
                          Density (g/cm3)  =   0.83379
                        Activity of water  =   1.000
                           Ionic strength  =   8.902e-04
                       Mass of water (kg)  =   1.000e+00
                 Total alkalinity (eq/kg)  =  -2.229e-09
                    Total carbon (mol/kg)  =   0.000e+00
                       Total CO2 (mol/kg)  =   0.000e+00
                      Temperature (deg C)  = 225.00
                           Pressure (atm)  = 25.21
                  Electrical balance (eq)  =  -3.652e-14
 Percent error, 100*(Cat-|An|)/(Cat+|An|)  =  -0.00
                               Iterations  =  16
                                  Total H  = 1.110124e+02
                                  Total O  = 5.550742e+01

----------------------------Distribution of species----------------------------

                                               Log       Log       Log    mole V
   Species          Molality    Activity  Molality  Activity     Gamma   cm3/mol

   OH-             8.598e-06   8.108e-06    -5.066    -5.091    -0.026    -46.04
   H+              8.204e-07   7.761e-07    -6.086    -6.110    -0.024      0.00
   H2O             5.551e+01   1.000e+00     1.744    -0.000     0.000     21.61
H(0)          6.299e-23
   H2              3.150e-23   3.150e-23   -22.502   -22.502     0.000     28.54
Na            6.000e-04
   Na+             5.986e-04   5.647e-04    -3.223    -3.248    -0.025     -8.98
   NaSO4-          1.418e-06   1.337e-06    -5.848    -5.874    -0.026     97.09
   NaOH            4.431e-19   4.431e-19   -18.354   -18.353     0.000     (0)  
O(0)          3.474e-09
   O2              1.737e-09   1.738e-09    -8.760    -8.760     0.000     42.18
S(-2)         0.000e+00
   H2S             0.000e+00   0.000e+00   -67.937   -67.937     0.000     37.32
   HS-             0.000e+00   0.000e+00   -69.088   -69.114    -0.026     -5.33
   S-2             0.000e+00   0.000e+00   -72.262   -72.362    -0.100     (0)  
S(6)          3.000e-04
   SO4-2           2.908e-04   2.307e-04    -3.536    -3.637    -0.101     34.27
   HSO4-           7.780e-06   7.336e-06    -5.109    -5.135    -0.026     15.56
   NaSO4-          1.418e-06   1.337e-06    -5.848    -5.874    -0.026     97.09

------------------------------Saturation indices-------------------------------

	Phase               SI   log IAP   log K(498 K,  25 atm)

	H2(g)           -19.79    -22.50   -2.71  H2
	H2O(g)            1.36     -0.00   -1.36  H2O
	H2S(g)          -66.81    -75.22   -8.41  H2S
	O2(g)            -5.99     -8.76   -2.77  O2
	Sulfur          -51.21    -49.11    2.10  S


Reaction step 20.

Using solution 1.	
Using temperature 1.	

-----------------------------Solution composition------------------------------

	Elements           Molality       Moles

	Na                6.000e-04   6.000e-04
	S                 3.000e-04   3.000e-04

----------------------------Description of solution----------------------------

                                       pH  =   6.179      Charge balance
                                       pe  =   2.909      Adjusted to redox equilibrium
       Specific Conductance (uS/cm, 237 oC) = 615
                          Density (g/cm3)  =   0.81690
                        Activity of water  =   1.000
                           Ionic strength  =   8.879e-04
                       Mass of water (kg)  =   1.000e+00
                 Total alkalinity (eq/kg)  =  -2.229e-09
                    Total carbon (mol/kg)  =   0.000e+00
                       Total CO2 (mol/kg)  =   0.000e+00
                      Temperature (deg C)  = 237.50
                           Pressure (atm)  = 31.64
                  Electrical balance (eq)  =  -3.652e-14
 Percent error, 100*(Cat-|An|)/(Cat+|An|)  =  -0.00
                               Iterations  =  19
                                  Total H  = 1.110124e+02
                                  Total O  = 5.550742e+01

----------------------------Distribution of species----------------------------

                                               Log       Log       Log    mole V
   Species          Molality    Activity  Molality  Activity     Gamma   cm3/mol

   OH-             1.069e-05   1.005e-05    -4.971    -4.998    -0.027    -57.47
   H+              7.017e-07   6.621e-07    -6.154    -6.179    -0.025      0.00
   H2O             5.551e+01   1.000e+00     1.744    -0.000     0.000     22.05
H(0)          2.692e-22
   H2              1.346e-22   1.346e-22   -21.871   -21.871     0.000     28.54
Na            6.000e-04
   Na+             5.986e-04   5.631e-04    -3.223    -3.249    -0.027     -8.98
   NaSO4-          1.416e-06   1.331e-06    -5.849    -5.876    -0.027     97.71
   NaOH            5.392e-19   5.393e-19   -18.268   -18.268     0.000     (0)  
O(0)          4.844e-09
   O2              2.422e-09   2.422e-09    -8.616    -8.616     0.000     44.24
S(-2)         0.000e+00
   H2S             0.000e+00   0.000e+00   -65.992   -65.992     0.000     37.31
   HS-             0.000e+00   0.000e+00   -67.205   -67.232    -0.027    -12.60
   S-2             0.000e+00   0.000e+00   -70.179   -70.284    -0.105     (0)  
S(6)          3.000e-04
   SO4-2           2.886e-04   2.264e-04    -3.540    -3.645    -0.105     34.58
   HSO4-           9.993e-06   9.396e-06    -5.000    -5.027    -0.027      9.65
   NaSO4-          1.416e-06   1.331e-06    -5.849    -5.876    -0.027     97.71

------------------------------Saturation indices-------------------------------

	Phase               SI   log IAP   log K(510 K,  32 atm)

	H2(g)           -19.21    -21.87   -2.66  H2
	H2O(g)            1.45     -0.00   -1.45  H2O
	H2S(g)          -64.92    -73.41   -8.49  H2S
	O2(g)            -5.90     -8.62   -2.71  O2
	Sulfur          -49.82    -47.82    2.00  S


Reaction step 21.

Using solution 1.	
Using temperature 1.	

-----------------------------Solution composition------------------------------

	Elements           Molality       Moles

	Na                6.000e-04   6.000e-04
	S                 3.000e-04   3.000e-04

----------------------------Description of solution----------------------------

                                       pH  =   6.256      Charge balance
                                       pe  =   2.398      Adjusted to redox equilibrium
       Specific Conductance (uS/cm, 250 oC) = 653
                          Density (g/cm3)  =   0.79892
                        Activity of water  =   1.000
                           Ionic strength  =   8.851e-04
                       Mass of water (kg)  =   1.000e+00
                 Total alkalinity (eq/kg)  =  -2.229e-09
                    Total carbon (mol/kg)  =   0.000e+00
                       Total CO2 (mol/kg)  =   0.000e+00
                      Temperature (deg C)  = 250.00
                           Pressure (atm)  = 39.24
                  Electrical balance (eq)  =  -3.652e-14
 Percent error, 100*(Cat-|An|)/(Cat+|An|)  =  -0.00
                               Iterations  =  23
                                  Total H  = 1.110124e+02
                                  Total O  = 5.550742e+01

----------------------------Distribution of species----------------------------

                                               Log       Log       Log    mole V
   Species          Molality    Activity  Molality  Activity     Gamma   cm3/mol

   OH-             1.323e-05   1.240e-05    -4.879    -4.907    -0.028    -72.39
   H+              5.898e-07   5.549e-07    -6.229    -6.256    -0.027      0.00
   H2O             5.551e+01   1.000e+00     1.744    -0.000     0.000     22.55
H(0)          1.900e-21
   H2              9.500e-22   9.502e-22   -21.022   -21.022     0.000     28.53
Na            6.000e-04
   Na+             5.986e-04   5.614e-04    -3.223    -3.251    -0.028     -8.98
   NaSO4-          1.406e-06   1.318e-06    -5.852    -5.880    -0.028     98.59
   NaOH            6.473e-19   6.474e-19   -18.189   -18.189     0.000     (0)  
O(0)          2.117e-09
   O2              1.058e-09   1.059e-09    -8.975    -8.975     0.000     46.90
S(-2)         0.000e+00
   H2S             0.000e+00   0.000e+00   -63.157   -63.157     0.000     37.30
   HS-             0.000e+00   0.000e+00   -64.430   -64.458    -0.028    -22.09
   S-2             0.000e+00   0.000e+00   -67.204   -67.315    -0.111     (0)  
S(6)          3.000e-04
   SO4-2           2.860e-04   2.217e-04    -3.544    -3.654    -0.111     34.99
   HSO4-           1.264e-05   1.185e-05    -4.898    -4.926    -0.028      1.93
   NaSO4-          1.406e-06   1.318e-06    -5.852    -5.880    -0.028     98.59

------------------------------Saturation indices-------------------------------

	Phase               SI   log IAP   log K(523 K,  39 atm)

	H2(g)           -18.41    -21.02   -2.61  H2
	H2O(g)            1.53     -0.00   -1.53  H2O
	H2S(g)          -62.14    -70.71   -8.57  H2S
	O2(g)            -6.32     -8.98   -2.65  O2
	Sulfur          -47.76    -45.85    1.91  S


------------------
End of simulation.
------------------

------------------------------------
Reading input data for simulation 4.
------------------------------------

	PRINT
	 reset false
----------------------------------User print-----------------------------------


----------------------------------User print-----------------------------------


----------------------------------User print-----------------------------------


----------------------------------User print-----------------------------------


----------------------------------User print-----------------------------------


----------------------------------User print-----------------------------------


----------------------------------User print-----------------------------------


----------------------------------User print-----------------------------------


----------------------------------User print-----------------------------------


----------------------------------User print-----------------------------------


----------------------------------User print-----------------------------------


----------------------------------User print-----------------------------------


----------------------------------User print-----------------------------------


----------------------------------User print-----------------------------------


----------------------------------User print-----------------------------------


----------------------------------User print-----------------------------------


----------------------------------User print-----------------------------------


----------------------------------User print-----------------------------------


----------------------------------User print-----------------------------------


----------------------------------User print-----------------------------------


----------------------------------User print-----------------------------------


----------------------------------User print-----------------------------------


------------------------------
End of Run after 0.06 Seconds.
------------------------------

