   Input file: N2_conc_PR_IS
  Output file: N2_conc_PR_IS.out
Database file: ../database/phreeqc.dat

------------------
Reading data base.
------------------

	SOLUTION_MASTER_SPECIES
	SOLUTION_SPECIES
	PHASES
	EXCHANGE_MASTER_SPECIES
	EXCHANGE_SPECIES
	SURFACE_MASTER_SPECIES
	SURFACE_SPECIES
	RATES
	END
------------------------------------
Reading input data for simulation 1.
------------------------------------

	DATABASE ../database/phreeqc.dat
	SOLUTION_SPECIES
	Na+ = Na+
		gamma	4.0	0.075
		dw	 1.33e-9
		millero -3.46 0.1092 -0.000768 2.698 -0.106 0.001651
		vm -2.15 0.0193 2.23e-4  6.2e-3 0.015 -2.74e-4  -0.9e-3  0.35 # NaCl.xls, Laliberte, 2009. Halite solubility
	Cl- = Cl-
		gamma	3.5	0.015
		dw	 2.03e-9
		millero 16.37 0.0896 -0.001264 -1.494 0.034 -0.000621
		vm 16.26 0.104 -1.25e-3  0.467 -0.027 2.95e-4  -1e-3  0.04 # 0-100 oC, HCl.xls, Laliberte, 2009. Halite solubility
	SO4-2 = SO4-2
		gamma	5.0	-0.04
		dw	 1.07e-9
		millero 9.26 0.284 -0.003808 0.4348 -0.0099143 -8.4762e-05
		vm 9.55 0.297 -3e-3  2.06 -0.08 7.08e-4  -9e-3  0.017 # Na2SO4.xls, Laliberte, 2009; Phulela and Pitzer, 1986; Gypsum/Anhydrite solubility.  0-200 oC, 1-1000 atm.
	CO3-2 + 2 H+ = CO2 + H2O
		log_k	16.681
		delta_h -5.738	kcal
		analytical_expression	464.1965	0.09344813	-26986.16	-165.75951	2248628.9
		dw	 1.92e-9
		vm   26.5 -0.066   0  0 0 0 -9.7E-03 # Data in Duan et al., 2006, MC 98, 131. 1-100 oC, 1-700 atm.
	2 H2O = O2 + 4 H+ + 4 e-
		log_k	-86.08
		delta_h 134.79 kcal
		dw	 2.35e-9
		vm 35 # Pray et al., 1952, IEC 44. 1146
	2 H+ + 2 e- = H2
		log_k	-3.15
		delta_h -1.759 kcal
		dw	 5.13e-9
		vm 20 # Pray et al., 1952, IEC 44. 1146
	CO3-2 + 10 H+ + 8 e- = CH4 + 3 H2O
		log_k	41.071
		delta_h -61.039 kcal
		dw	 1.85e-9
		vm 33
	HS- + H+ = H2S
		log_k	6.994
		delta_h -5.30	kcal
		analytical_expression  -11.17   0.02386  3279.0
		dw	 2.1e-9
		vm 34 0.021 3e-4 0 0 0 2.7e-3 # Hnedkovsky et al., 1996, JCT 28, 125
	2 NO3- + 12 H+ + 10 e- = N2 + 6 H2O
		log_k	207.08
		delta_h -312.130	kcal
		dw	 1.96e-9
		vm 30 # Pray et al., 1952, IEC 44. 1146
	PHASES
	CO2(g)
		CO2 = CO2
		log_k	-1.468
		delta_h -4.776 kcal
		analytical_expression	108.3865	0.01985076	-6919.53	-40.45154	669365.0
		t_c  304.2 # critical T, K
		p_c   72.80 # critical P, atm
		omega 0.225 #  acentric factor
	O2(g)
		O2 = O2
		log_k   -2.8983
		analytical_expression -7.5001 7.8981e-003 0.0 0.0 2.0027e+005
		T_c  154.6 # critical T, K
		p_c   49.80 # critical P, atm
		omega 0.021 #  acentric factor
	H2(g)
		H2 = H2
		log_k	   -3.1050
		delta_h -4.184  kJ
		analytical_expression   -9.3114e+000    4.6473e-003   -4.9335e+001    1.4341e+000    1.2815e+005
		t_c  33.2 # critical T, K
		p_c   12.80 # critical P, atm
		omega 0.225 #  acentric factor
	N2(g)
		N2 = N2
		log_k		 -3.1864
		analytical_expression -58.453 1.81800E-03  3199  17.909 -27460
		T_c  126.2 # critical T, K
		p_c   33.50 # critical P, atm
		omega 0.039 #  acentric factor
	H2S(g)
		H2S  =  H+ + HS-
		log_k	   -7.9759
		analytical_expression -9.7354e+001 -3.1576e-002 1.8285e+003 3.7440e+001 2.8560e+001
		T_c  373.2 # critical T, K
		p_c  88.20 # critical P, atm
		omega 0.1 #  acentric factor
	CH4(g)
		CH4 = CH4
		log_k	   -2.8502
		analytical_expression -2.4027e+001 4.7146e-003 3.7227e+002 6.4264e+000 2.3362e+005
		T_c  190.6 # critical T, K
		p_c   45.40 # critical P, atm
		omega 0.008 #  acentric factor
	Mirabilite
		Na2SO4:10H2O  =  SO4-2 + 2 Na+ + 10 H2O
		log_k	   -1.214
		analytical_expression       -3862.234   -1.19856    93713.54    1577.756    0.
		vm  216.2
	H2O(g)
		H2O = H2O
		log_k  1.506
	 delta_h -44.03 kJ
		T_c  647.3 # critical T, K
		p_c  217.60 # critical P, atm
		omega 0.344 #  acentric factor
		analytical_expression   -16.5066 -2.0013E-3  2710.7  3.7646  0 2.24E-6
	SOLUTION 1
	N 1 N2(g) 1.4
	PHASES
	N2(g)
		N2 = N2
		log_k		 -3.1864
		analytical_expression -58.453 1.81800E-03  3199  17.909 -27460
		T_c  126.2 # critical T, K
		p_c   33.50 # critical P, atm
		omega 0.039 # Pitzer acentric factor
	SELECTED_OUTPUT
	 reset false
	 file 25.prn
	USER_PUNCH
	  1 sc$ = chr$(59)
	 10 for i = 1.1 to 820 step 20
	 20   punch 'SOLUTION 1' + sc$ + ' -temp 25' + sc$ + ' pH 3 charge' + EOL$ + 'N 1 N2(g) ' + str$(log10(i)) + EOL$ + '-pressure ' + str$(i) + EOL$ + 'END' + EOL$
	 30 next i
	END
-------------------------------------------
Beginning of initial solution calculations.
-------------------------------------------

Initial solution 1.	

WARNING: USER_PUNCH: Headings count doesn't match number of calls to PUNCH.

-----------------------------Solution composition------------------------------

	Elements           Molality       Moles

	N                 3.318e-02   3.318e-02  Equilibrium with N2(g)

----------------------------Description of solution----------------------------

                                       pH  =   7.000    
                                       pe  =   4.000    
       Specific Conductance (uS/cm, 25 oC) = 0
                          Density (g/cm3)  =   0.99697
                        Activity of water  =   1.000
                           Ionic strength  =   1.008e-07
                       Mass of water (kg)  =   1.000e+00
                 Total alkalinity (eq/kg)  =   1.521e-09
                    Total carbon (mol/kg)  =   0.000e+00
                       Total CO2 (mol/kg)  =   0.000e+00
                      Temperature (deg C)  =  25.00
                  Electrical balance (eq)  =  -1.521e-09
 Percent error, 100*(Cat-|An|)/(Cat+|An|)  =  -0.75
                               Iterations  =   4
                                  Total H  = 1.110124e+02
                                  Total O  = 5.550622e+01

----------------------------Distribution of species----------------------------

                                            Log       Log         Log     mole V
   Species          Molality    Activity  Molality  Activity     Gamma   cm3/mol

   OH-             1.016e-07   1.015e-07    -6.993    -6.993    -0.000     -3.76
   H+              1.000e-07   1.000e-07    -7.000    -7.000    -0.000      0.00
   H2O             5.551e+01   9.997e-01     1.744    -0.000     0.000     18.07
H(0)          1.416e-25
   H2              7.079e-26   7.079e-26   -25.150   -25.150     0.000     20.00
N(-3)         4.462e-26
   NH4+            4.437e-26   4.435e-26   -25.353   -25.353    -0.000     17.86
   NH3             2.527e-28   2.527e-28   -27.597   -27.597     0.000     (0)  
N(0)          3.318e-02
   N2              1.659e-02   1.659e-02    -1.780    -1.780     0.000     30.00
N(3)          1.380e-36
   NO2-            1.380e-36   1.379e-36   -35.860   -35.860    -0.000     (0)  
N(5)          0.000e+00
   NO3-            0.000e+00   0.000e+00   -42.430   -42.430    -0.000     28.99
O(0)          0.000e+00
   O2              0.000e+00   0.000e+00   -42.080   -42.080     0.000     35.00

------------------------------Saturation indices-------------------------------

	Phase               SI   log IAP   log K(298 K,   1 atm)

	H2(g)           -22.05    -25.15   -3.10  H2
	H2O(g)           -1.50     -0.00    1.50  H2O
	N2(g)             1.40     -1.78   -3.18  N2	 Pressure  25.1 atm, phi 0.990.
	NH3(g)          -29.39    -27.60    1.80  NH3
	O2(g)           -39.19    -42.08   -2.89  O2


------------------
End of simulation.
------------------

------------------------------------
Reading input data for simulation 2.
------------------------------------

	SELECTED_OUTPUT
	 selected_out false
	USER_GRAPH
	 -plot_csv_file N2_25C.dat
	 -axis_titles "Pressure / atm" "N2 / (mol/kgw)"
	 -axis_scale x_axis 0 800
	 -axis_scale y_axis 0 0.3
	 -initial_solutions true
	 10 x = PR_P("N2(g)")
	 20 graph_x x # tot("Na")
	 30 graph_y tot("N")/2
	 -end
	SOLUTION 1
	 temp 25
	 pH 3 charge
	N 1 N2(g)   4.1393e-02
	pressure   1.1000e+00
	END
-------------------------------------------
Beginning of initial solution calculations.
-------------------------------------------

Initial solution 1.	

-----------------------------Solution composition------------------------------

	Elements           Molality       Moles

	N                 1.467e-03   1.467e-03  Equilibrium with N2(g)

----------------------------Description of solution----------------------------

                                       pH  =   6.997      Charge balance
                                       pe  =   4.000    
       Specific Conductance (uS/cm, 25 oC) = 0
                          Density (g/cm3)  =   0.99700
                        Activity of water  =   1.000
                           Ionic strength  =   1.008e-07
                       Mass of water (kg)  =   1.000e+00
                 Total alkalinity (eq/kg)  =  -6.019e-20
                    Total carbon (mol/kg)  =   0.000e+00
                       Total CO2 (mol/kg)  =   0.000e+00
                      Temperature (deg C)  =  25.00
                           Pressure (atm)  =  1.10
                  Electrical balance (eq)  =   6.019e-20
 Percent error, 100*(Cat-|An|)/(Cat+|An|)  =   0.00
                               Iterations  =  16
                                  Total H  = 1.110124e+02
                                  Total O  = 5.550622e+01

----------------------------Distribution of species----------------------------

                                            Log       Log         Log     mole V
   Species          Molality    Activity  Molality  Activity     Gamma   cm3/mol

   H+              1.008e-07   1.008e-07    -6.996    -6.997    -0.000      0.00
   OH-             1.008e-07   1.008e-07    -6.996    -6.997    -0.000     -3.76
   H2O             5.551e+01   1.000e+00     1.744    -0.000     0.000     18.07
H(0)          1.438e-25
   H2              7.189e-26   7.189e-26   -25.143   -25.143     0.000     20.00
N(-3)         9.677e-27
   NH4+            9.622e-27   9.619e-27   -26.017   -26.017    -0.000     17.86
   NH3             5.440e-29   5.440e-29   -28.264   -28.264     0.000     (0)  
N(0)          1.467e-03
   N2              7.335e-04   7.335e-04    -3.135    -3.135     0.000     30.00
N(3)          2.815e-37
   NO2-            2.815e-37   2.814e-37   -36.550   -36.551    -0.000     (0)  
N(5)          0.000e+00
   NO3-            0.000e+00   0.000e+00   -43.127   -43.127    -0.000     28.99
O(0)          0.000e+00
   O2              0.000e+00   0.000e+00   -42.093   -42.093     0.000     35.00

------------------------------Saturation indices-------------------------------

	Phase               SI   log IAP   log K(298 K,   1 atm)

	H2(g)           -22.04    -25.14   -3.10  H2
	H2O(g)           -1.50     -0.00    1.50  H2O
	N2(g)             0.04     -3.13   -3.18  N2	 Pressure   1.1 atm, phi 1.000.
	NH3(g)          -30.06    -28.26    1.80  NH3
	O2(g)           -39.20    -42.09   -2.89  O2


------------------
End of simulation.
------------------

------------------------------------
Reading input data for simulation 3.
------------------------------------

		SOLUTION 1
	 temp 25
	 pH 3 charge
	N 1 N2(g)   1.3243e+00
	pressure   2.1100e+01
	END
-------------------------------------------
Beginning of initial solution calculations.
-------------------------------------------

Initial solution 1.	

-----------------------------Solution composition------------------------------

	Elements           Molality       Moles

	N                 2.723e-02   2.723e-02  Equilibrium with N2(g)

----------------------------Description of solution----------------------------

                                       pH  =   6.993      Charge balance
                                       pe  =   4.000    
       Specific Conductance (uS/cm, 25 oC) = 0
                          Density (g/cm3)  =   0.99777
                        Activity of water  =   1.000
                           Ionic strength  =   1.017e-07
                       Mass of water (kg)  =   1.000e+00
                 Total alkalinity (eq/kg)  =   8.504e-18
                    Total carbon (mol/kg)  =   0.000e+00
                       Total CO2 (mol/kg)  =   0.000e+00
                      Temperature (deg C)  =  25.00
                           Pressure (atm)  = 21.10
                  Electrical balance (eq)  =  -8.504e-18
 Percent error, 100*(Cat-|An|)/(Cat+|An|)  =  -0.00
                               Iterations  =  16
                                  Total H  = 1.110124e+02
                                  Total O  = 5.550622e+01

----------------------------Distribution of species----------------------------

                                            Log       Log         Log     mole V
   Species          Molality    Activity  Molality  Activity     Gamma   cm3/mol

   OH-             1.017e-07   1.017e-07    -6.993    -6.993    -0.000     -3.69
   H+              1.017e-07   1.017e-07    -6.993    -6.993    -0.000      0.00
   H2O             5.551e+01   9.998e-01     1.744    -0.000     0.000     18.06
H(0)          1.440e-25
   H2              7.198e-26   7.198e-26   -25.143   -25.143     0.000     20.00
N(-3)         4.309e-26
   NH4+            4.284e-26   4.282e-26   -25.368   -25.368    -0.000     17.86
   NH3             2.487e-28   2.487e-28   -27.604   -27.604     0.000     (0)  
N(0)          2.723e-02
   N2              1.362e-02   1.362e-02    -1.866    -1.866     0.000     30.00
N(3)          1.210e-36
   NO2-            1.210e-36   1.209e-36   -35.917   -35.918    -0.000     (0)  
N(5)          0.000e+00
   NO3-            0.000e+00   0.000e+00   -42.502   -42.502    -0.000     28.99
O(0)          0.000e+00
   O2              0.000e+00   0.000e+00   -42.108   -42.108     0.000     35.00

------------------------------Saturation indices-------------------------------

	Phase               SI   log IAP   log K(298 K,  21 atm)

	H2(g)           -22.04    -25.14   -3.10  H2
	H2O(g)           -1.50     -0.00    1.50  H2O
	N2(g)             1.29     -1.87   -3.16  N2	 Pressure  21.1 atm, phi 0.991.
	NH3(g)          -29.41    -27.60    1.81  NH3
	O2(g)           -39.20    -42.11   -2.91  O2


------------------
End of simulation.
------------------

------------------------------------
Reading input data for simulation 4.
------------------------------------

		SOLUTION 1
	 temp 25
	 pH 3 charge
	N 1 N2(g)   1.6138e+00
	pressure   4.1100e+01
	END
-------------------------------------------
Beginning of initial solution calculations.
-------------------------------------------

Initial solution 1.	

-----------------------------Solution composition------------------------------

	Elements           Molality       Moles

	N                 5.140e-02   5.140e-02  Equilibrium with N2(g)

----------------------------Description of solution----------------------------

                                       pH  =   6.989      Charge balance
                                       pe  =   4.000    
       Specific Conductance (uS/cm, 25 oC) = 0
                          Density (g/cm3)  =   0.99865
                        Activity of water  =   1.000
                           Ionic strength  =   1.026e-07
                       Mass of water (kg)  =   1.000e+00
                 Total alkalinity (eq/kg)  =   2.714e-17
                    Total carbon (mol/kg)  =   0.000e+00
                       Total CO2 (mol/kg)  =   0.000e+00
                      Temperature (deg C)  =  25.00
                           Pressure (atm)  = 41.10
                  Electrical balance (eq)  =  -2.714e-17
 Percent error, 100*(Cat-|An|)/(Cat+|An|)  =  -0.00
                               Iterations  =  16
                                  Total H  = 1.110124e+02
                                  Total O  = 5.550622e+01

----------------------------Distribution of species----------------------------

                                            Log       Log         Log     mole V
   Species          Molality    Activity  Molality  Activity     Gamma   cm3/mol

   OH-             1.026e-07   1.026e-07    -6.989    -6.989    -0.000     -3.61
   H+              1.026e-07   1.026e-07    -6.989    -6.989    -0.000      0.00
   H2O             5.551e+01   9.996e-01     1.744    -0.000     0.000     18.04
H(0)          1.441e-25
   H2              7.205e-26   7.205e-26   -25.142   -25.142     0.000     20.00
N(-3)         6.116e-26
   NH4+            6.080e-26   6.077e-26   -25.216   -25.216    -0.000     17.86
   NH3             3.624e-28   3.624e-28   -27.441   -27.441     0.000     (0)  
N(0)          5.140e-02
   N2              2.570e-02   2.570e-02    -1.590    -1.590     0.000     30.00
N(3)          1.658e-36
   NO2-            1.658e-36   1.657e-36   -35.780   -35.781    -0.000     (0)  
N(5)          0.000e+00
   NO3-            0.000e+00   0.000e+00   -42.373   -42.373    -0.000     28.99
O(0)          0.000e+00
   O2              0.000e+00   0.000e+00   -42.123   -42.123     0.000     35.00

------------------------------Saturation indices-------------------------------

	Phase               SI   log IAP   log K(298 K,  41 atm)

	H2(g)           -22.04    -25.14   -3.10  H2
	H2O(g)           -1.49     -0.00    1.49  H2O
	N2(g)             1.55     -1.59   -3.14  N2	 Pressure  41.1 atm, phi 0.984.
	NH3(g)          -29.25    -27.44    1.81  NH3
	O2(g)           -39.21    -42.12   -2.92  O2


------------------
End of simulation.
------------------

------------------------------------
Reading input data for simulation 5.
------------------------------------

		SOLUTION 1
	 temp 25
	 pH 3 charge
	N 1 N2(g)   1.7860e+00
	pressure   6.1100e+01
	END
-------------------------------------------
Beginning of initial solution calculations.
-------------------------------------------

Initial solution 1.	

-----------------------------Solution composition------------------------------

	Elements           Molality       Moles

	N                 7.415e-02   7.415e-02  Equilibrium with N2(g)

----------------------------Description of solution----------------------------

                                       pH  =   6.985      Charge balance
                                       pe  =   4.000    
       Specific Conductance (uS/cm, 25 oC) = 0
                          Density (g/cm3)  =   0.99952
                        Activity of water  =   0.999
                           Ionic strength  =   1.035e-07
                       Mass of water (kg)  =   1.000e+00
                 Total alkalinity (eq/kg)  =   4.181e-17
                    Total carbon (mol/kg)  =   0.000e+00
                       Total CO2 (mol/kg)  =   0.000e+00
                      Temperature (deg C)  =  25.00
                           Pressure (atm)  = 61.10
                  Electrical balance (eq)  =  -4.181e-17
 Percent error, 100*(Cat-|An|)/(Cat+|An|)  =  -0.00
                               Iterations  =  16
                                  Total H  = 1.110124e+02
                                  Total O  = 5.550622e+01

----------------------------Distribution of species----------------------------

                                            Log       Log         Log     mole V
   Species          Molality    Activity  Molality  Activity     Gamma   cm3/mol

   OH-             1.035e-07   1.034e-07    -6.985    -6.985    -0.000     -3.54
   H+              1.035e-07   1.034e-07    -6.985    -6.985    -0.000      0.00
   H2O             5.551e+01   9.994e-01     1.744    -0.000     0.000     18.02
H(0)          1.442e-25
   H2              7.212e-26   7.212e-26   -25.142   -25.142     0.000     20.00
N(-3)         7.587e-26
   NH4+            7.541e-26   7.539e-26   -25.123   -25.123    -0.000     17.86
   NH3             4.615e-28   4.615e-28   -27.336   -27.336     0.000     (0)  
N(0)          7.415e-02
   N2              3.707e-02   3.707e-02    -1.431    -1.431     0.000     30.00
N(3)          1.987e-36
   NO2-            1.987e-36   1.986e-36   -35.702   -35.702    -0.000     (0)  
N(5)          0.000e+00
   NO3-            0.000e+00   0.000e+00   -42.302   -42.302    -0.000     28.99
O(0)          0.000e+00
   O2              0.000e+00   0.000e+00   -42.138   -42.138     0.000     35.00

------------------------------Saturation indices-------------------------------

	Phase               SI   log IAP   log K(298 K,  61 atm)

	H2(g)           -22.04    -25.14   -3.10  H2
	H2O(g)           -1.48     -0.00    1.48  H2O
	N2(g)             1.69     -1.43   -3.12  N2	 Pressure  61.1 atm, phi 0.979.
	NH3(g)          -29.16    -27.34    1.82  NH3
	O2(g)           -39.21    -42.14   -2.93  O2


------------------
End of simulation.
------------------

------------------------------------
Reading input data for simulation 6.
------------------------------------

		SOLUTION 1
	 temp 25
	 pH 3 charge
	N 1 N2(g)   1.9090e+00
	pressure   8.1100e+01
	END
-------------------------------------------
Beginning of initial solution calculations.
-------------------------------------------

Initial solution 1.	

-----------------------------Solution composition------------------------------

	Elements           Molality       Moles

	N                 9.564e-02   9.564e-02  Equilibrium with N2(g)

----------------------------Description of solution----------------------------

                                       pH  =   6.982      Charge balance
                                       pe  =   4.000    
       Specific Conductance (uS/cm, 25 oC) = 0
                          Density (g/cm3)  =   1.00040
                        Activity of water  =   0.999
                           Ionic strength  =   1.044e-07
                       Mass of water (kg)  =   1.000e+00
                 Total alkalinity (eq/kg)  =   5.085e-17
                    Total carbon (mol/kg)  =   0.000e+00
                       Total CO2 (mol/kg)  =   0.000e+00
                      Temperature (deg C)  =  25.00
                           Pressure (atm)  = 81.10
                  Electrical balance (eq)  =  -5.085e-17
 Percent error, 100*(Cat-|An|)/(Cat+|An|)  =  -0.00
                               Iterations  =  16
                                  Total H  = 1.110124e+02
                                  Total O  = 5.550622e+01

----------------------------Distribution of species----------------------------

                                            Log       Log         Log     mole V
   Species          Molality    Activity  Molality  Activity     Gamma   cm3/mol

   OH-             1.044e-07   1.043e-07    -6.981    -6.982    -0.000     -3.46
   H+              1.044e-07   1.043e-07    -6.981    -6.982    -0.000      0.00
   H2O             5.551e+01   9.992e-01     1.744    -0.000     0.000     18.01
H(0)          1.444e-25
   H2              7.218e-26   7.218e-26   -25.142   -25.142     0.000     20.00
N(-3)         8.898e-26
   NH4+            8.843e-26   8.839e-26   -25.053   -25.054    -0.000     17.86
   NH3             5.556e-28   5.556e-28   -27.255   -27.255     0.000     (0)  
N(0)          9.564e-02
   N2              4.782e-02   4.782e-02    -1.320    -1.320     0.000     30.00
N(3)          2.252e-36
   NO2-            2.252e-36   2.251e-36   -35.648   -35.648    -0.000     (0)  
N(5)          0.000e+00
   NO3-            0.000e+00   0.000e+00   -42.255   -42.255    -0.000     28.99
O(0)          0.000e+00
   O2              0.000e+00   0.000e+00   -42.153   -42.153     0.000     35.00

------------------------------Saturation indices-------------------------------

	Phase               SI   log IAP   log K(298 K,  81 atm)

	H2(g)           -22.04    -25.14   -3.10  H2
	H2O(g)           -1.48     -0.00    1.48  H2O
	N2(g)             1.78     -1.32   -3.10  N2	 Pressure  81.1 atm, phi 0.975.
	NH3(g)          -29.09    -27.26    1.83  NH3
	O2(g)           -39.21    -42.15   -2.94  O2


------------------
End of simulation.
------------------

------------------------------------
Reading input data for simulation 7.
------------------------------------

		SOLUTION 1
	 temp 25
	 pH 3 charge
	N 1 N2(g)   2.0048e+00
	pressure   1.0110e+02
	END
-------------------------------------------
Beginning of initial solution calculations.
-------------------------------------------

Initial solution 1.	

-----------------------------Solution composition------------------------------

	Elements           Molality       Moles

	N                 1.160e-01   1.160e-01  Equilibrium with N2(g)

----------------------------Description of solution----------------------------

                                       pH  =   6.978      Charge balance
                                       pe  =   4.000    
       Specific Conductance (uS/cm, 25 oC) = 0
                          Density (g/cm3)  =   1.00127
                        Activity of water  =   0.999
                           Ionic strength  =   1.053e-07
                       Mass of water (kg)  =   1.000e+00
                 Total alkalinity (eq/kg)  =   5.428e-17
                    Total carbon (mol/kg)  =   0.000e+00
                       Total CO2 (mol/kg)  =   0.000e+00
                      Temperature (deg C)  =  25.00
                           Pressure (atm)  = 101.10
                  Electrical balance (eq)  =  -5.428e-17
 Percent error, 100*(Cat-|An|)/(Cat+|An|)  =  -0.00
                               Iterations  =  16
                                  Total H  = 1.110124e+02
                                  Total O  = 5.550622e+01

----------------------------Distribution of species----------------------------

                                            Log       Log         Log     mole V
   Species          Molality    Activity  Molality  Activity     Gamma   cm3/mol

   OH-             1.053e-07   1.052e-07    -6.978    -6.978    -0.000     -3.38
   H+              1.053e-07   1.052e-07    -6.978    -6.978    -0.000      0.00
   H2O             5.551e+01   9.990e-01     1.744    -0.000     0.000     17.99
H(0)          1.445e-25
   H2              7.223e-26   7.223e-26   -25.141   -25.141     0.000     20.00
N(-3)         1.012e-25
   NH4+            1.005e-25   1.005e-25   -24.998   -24.998    -0.000     17.86
   NH3             6.485e-28   6.485e-28   -27.188   -27.188     0.000     (0)  
N(0)          1.160e-01
   N2              5.801e-02   5.801e-02    -1.237    -1.237     0.000     30.00
N(3)          2.475e-36
   NO2-            2.475e-36   2.474e-36   -35.606   -35.607    -0.000     (0)  
N(5)          0.000e+00
   NO3-            0.000e+00   0.000e+00   -42.221   -42.221    -0.000     28.99
O(0)          0.000e+00
   O2              0.000e+00   0.000e+00   -42.168   -42.168     0.000     35.00

------------------------------Saturation indices-------------------------------

	Phase               SI   log IAP   log K(298 K, 101 atm)

	H2(g)           -22.04    -25.14   -3.10  H2
	H2O(g)           -1.47     -0.00    1.47  H2O
	N2(g)             1.85     -1.24   -3.09  N2	 Pressure 101.1 atm, phi 0.972.
	NH3(g)          -29.03    -27.19    1.84  NH3
	O2(g)           -39.21    -42.17   -2.96  O2


------------------
End of simulation.
------------------

------------------------------------
Reading input data for simulation 8.
------------------------------------

		SOLUTION 1
	 temp 25
	 pH 3 charge
	N 1 N2(g)   2.0831e+00
	pressure   1.2110e+02
	END
-------------------------------------------
Beginning of initial solution calculations.
-------------------------------------------

Initial solution 1.	

-----------------------------Solution composition------------------------------

	Elements           Molality       Moles

	N                 1.353e-01   1.353e-01  Equilibrium with N2(g)

----------------------------Description of solution----------------------------

                                       pH  =   6.974      Charge balance
                                       pe  =   4.000    
       Specific Conductance (uS/cm, 25 oC) = 0
                          Density (g/cm3)  =   1.00214
                        Activity of water  =   0.999
                           Ionic strength  =   1.062e-07
                       Mass of water (kg)  =   1.000e+00
                 Total alkalinity (eq/kg)  =   5.345e-17
                    Total carbon (mol/kg)  =   0.000e+00
                       Total CO2 (mol/kg)  =   0.000e+00
                      Temperature (deg C)  =  25.00
                           Pressure (atm)  = 121.10
                  Electrical balance (eq)  =  -5.345e-17
 Percent error, 100*(Cat-|An|)/(Cat+|An|)  =  -0.00
                               Iterations  =  16
                                  Total H  = 1.110124e+02
                                  Total O  = 5.550622e+01

----------------------------Distribution of species----------------------------

                                            Log       Log         Log     mole V
   Species          Molality    Activity  Molality  Activity     Gamma   cm3/mol

   OH-             1.062e-07   1.061e-07    -6.974    -6.974    -0.000     -3.31
   H+              1.062e-07   1.061e-07    -6.974    -6.974    -0.000      0.00
   H2O             5.551e+01   9.988e-01     1.744    -0.000     0.000     17.98
H(0)          1.445e-25
   H2              7.226e-26   7.226e-26   -25.141   -25.141     0.000     20.00
N(-3)         1.128e-25
   NH4+            1.120e-25   1.120e-25   -24.951   -24.951    -0.000     17.86
   NH3             7.421e-28   7.421e-28   -27.130   -27.130     0.000     (0)  
N(0)          1.353e-01
   N2              6.767e-02   6.767e-02    -1.170    -1.170     0.000     30.00
N(3)          2.669e-36
   NO2-            2.669e-36   2.668e-36   -35.574   -35.574    -0.000     (0)  
N(5)          0.000e+00
   NO3-            0.000e+00   0.000e+00   -42.196   -42.196    -0.000     28.99
O(0)          0.000e+00
   O2              0.000e+00   0.000e+00   -42.182   -42.182     0.000     35.00

------------------------------Saturation indices-------------------------------

	Phase               SI   log IAP   log K(298 K, 121 atm)

	H2(g)           -22.04    -25.14   -3.10  H2
	H2O(g)           -1.47     -0.00    1.46  H2O
	N2(g)             1.90     -1.17   -3.07  N2	 Pressure 121.1 atm, phi 0.970.
	NH3(g)          -28.98    -27.13    1.85  NH3
	O2(g)           -39.21    -42.18   -2.97  O2


------------------
End of simulation.
------------------

------------------------------------
Reading input data for simulation 9.
------------------------------------

		SOLUTION 1
	 temp 25
	 pH 3 charge
	N 1 N2(g)   2.1495e+00
	pressure   1.4110e+02
	END
-------------------------------------------
Beginning of initial solution calculations.
-------------------------------------------

Initial solution 1.	

-----------------------------Solution composition------------------------------

	Elements           Molality       Moles

	N                 1.538e-01   1.538e-01  Equilibrium with N2(g)

----------------------------Description of solution----------------------------

                                       pH  =   6.971      Charge balance
                                       pe  =   4.000    
       Specific Conductance (uS/cm, 25 oC) = 0
                          Density (g/cm3)  =   1.00300
                        Activity of water  =   0.999
                           Ionic strength  =   1.070e-07
                       Mass of water (kg)  =   1.000e+00
                 Total alkalinity (eq/kg)  =   5.211e-17
                    Total carbon (mol/kg)  =   0.000e+00
                       Total CO2 (mol/kg)  =   0.000e+00
                      Temperature (deg C)  =  25.00
                           Pressure (atm)  = 141.10
                  Electrical balance (eq)  =  -5.211e-17
 Percent error, 100*(Cat-|An|)/(Cat+|An|)  =  -0.00
                               Iterations  =  16
                                  Total H  = 1.110124e+02
                                  Total O  = 5.550622e+01

----------------------------Distribution of species----------------------------

                                            Log       Log         Log     mole V
   Species          Molality    Activity  Molality  Activity     Gamma   cm3/mol

   OH-             1.070e-07   1.070e-07    -6.970    -6.971    -0.000     -3.23
   H+              1.070e-07   1.070e-07    -6.970    -6.971    -0.000      0.00
   H2O             5.551e+01   9.987e-01     1.744    -0.001     0.000     17.96
H(0)          1.446e-25
   H2              7.229e-26   7.229e-26   -25.141   -25.141     0.000     20.00
N(-3)         1.240e-25
   NH4+            1.232e-25   1.232e-25   -24.909   -24.910    -0.000     17.86
   NH3             8.378e-28   8.378e-28   -27.077   -27.077     0.000     (0)  
N(0)          1.538e-01
   N2              7.689e-02   7.689e-02    -1.114    -1.114     0.000     30.00
N(3)          2.841e-36
   NO2-            2.841e-36   2.840e-36   -35.546   -35.547    -0.000     (0)  
N(5)          0.000e+00
   NO3-            0.000e+00   0.000e+00   -42.176   -42.176    -0.000     28.99
O(0)          0.000e+00
   O2              0.000e+00   0.000e+00   -42.196   -42.196     0.000     35.00

------------------------------Saturation indices-------------------------------

	Phase               SI   log IAP   log K(298 K, 141 atm)

	H2(g)           -22.04    -25.14   -3.10  H2
	H2O(g)           -1.46     -0.00    1.46  H2O
	N2(g)             1.94     -1.11   -3.05  N2	 Pressure 141.1 atm, phi 0.970.
	NH3(g)          -28.93    -27.08    1.86  NH3
	O2(g)           -39.21    -42.20   -2.98  O2


------------------
End of simulation.
------------------

-------------------------------------
Reading input data for simulation 10.
-------------------------------------

		SOLUTION 1
	 temp 25
	 pH 3 charge
	N 1 N2(g)   2.2071e+00
	pressure   1.6110e+02
	END
-------------------------------------------
Beginning of initial solution calculations.
-------------------------------------------

Initial solution 1.	

-----------------------------Solution composition------------------------------

	Elements           Molality       Moles

	N                 1.714e-01   1.714e-01  Equilibrium with N2(g)

----------------------------Description of solution----------------------------

                                       pH  =   6.967      Charge balance
                                       pe  =   4.000    
       Specific Conductance (uS/cm, 25 oC) = 0
                          Density (g/cm3)  =   1.00386
                        Activity of water  =   0.999
                           Ionic strength  =   1.079e-07
                       Mass of water (kg)  =   1.000e+00
                 Total alkalinity (eq/kg)  =   4.690e-17
                    Total carbon (mol/kg)  =   0.000e+00
                       Total CO2 (mol/kg)  =   0.000e+00
                      Temperature (deg C)  =  25.00
                           Pressure (atm)  = 161.10
                  Electrical balance (eq)  =  -4.690e-17
 Percent error, 100*(Cat-|An|)/(Cat+|An|)  =  -0.00
                               Iterations  =  16
                                  Total H  = 1.110124e+02
                                  Total O  = 5.550622e+01

----------------------------Distribution of species----------------------------

                                            Log       Log         Log     mole V
   Species          Molality    Activity  Molality  Activity     Gamma   cm3/mol

   OH-             1.079e-07   1.079e-07    -6.967    -6.967    -0.000     -3.16
   H+              1.079e-07   1.079e-07    -6.967    -6.967    -0.000      0.00
   H2O             5.551e+01   9.985e-01     1.744    -0.001     0.000     17.94
H(0)          1.446e-25
   H2              7.231e-26   7.231e-26   -25.141   -25.141     0.000     20.00
N(-3)         1.351e-25
   NH4+            1.341e-25   1.341e-25   -24.872   -24.873    -0.000     17.86
   NH3             9.366e-28   9.366e-28   -27.028   -27.028     0.000     (0)  
N(0)          1.714e-01
   N2              8.571e-02   8.571e-02    -1.067    -1.067     0.000     30.00
N(3)          2.997e-36
   NO2-            2.997e-36   2.995e-36   -35.523   -35.524    -0.000     (0)  
N(5)          0.000e+00
   NO3-            0.000e+00   0.000e+00   -42.160   -42.160    -0.000     28.99
O(0)          0.000e+00
   O2              0.000e+00   0.000e+00   -42.211   -42.211     0.000     35.00

------------------------------Saturation indices-------------------------------

	Phase               SI   log IAP   log K(298 K, 161 atm)

	H2(g)           -22.04    -25.14   -3.10  H2
	H2O(g)           -1.45     -0.00    1.45  H2O
	N2(g)             1.97     -1.07   -3.03  N2	 Pressure 161.1 atm, phi 0.970.
	NH3(g)          -28.90    -27.03    1.87  NH3
	O2(g)           -39.22    -42.21   -2.99  O2


------------------
End of simulation.
------------------

-------------------------------------
Reading input data for simulation 11.
-------------------------------------

		SOLUTION 1
	 temp 25
	 pH 3 charge
	N 1 N2(g)   2.2579e+00
	pressure   1.8110e+02
	END
-------------------------------------------
Beginning of initial solution calculations.
-------------------------------------------

Initial solution 1.	

-----------------------------Solution composition------------------------------

	Elements           Molality       Moles

	N                 1.883e-01   1.883e-01  Equilibrium with N2(g)

----------------------------Description of solution----------------------------

                                       pH  =   6.963      Charge balance
                                       pe  =   4.000    
       Specific Conductance (uS/cm, 25 oC) = 0
                          Density (g/cm3)  =   1.00472
                        Activity of water  =   0.998
                           Ionic strength  =   1.088e-07
                       Mass of water (kg)  =   1.000e+00
                 Total alkalinity (eq/kg)  =   4.093e-17
                    Total carbon (mol/kg)  =   0.000e+00
                       Total CO2 (mol/kg)  =   0.000e+00
                      Temperature (deg C)  =  25.00
                           Pressure (atm)  = 181.10
                  Electrical balance (eq)  =  -4.093e-17
 Percent error, 100*(Cat-|An|)/(Cat+|An|)  =  -0.00
                               Iterations  =  16
                                  Total H  = 1.110124e+02
                                  Total O  = 5.550622e+01

----------------------------Distribution of species----------------------------

                                            Log       Log         Log     mole V
   Species          Molality    Activity  Molality  Activity     Gamma   cm3/mol

   OH-             1.088e-07   1.088e-07    -6.963    -6.963    -0.000     -3.08
   H+              1.088e-07   1.088e-07    -6.963    -6.963    -0.000      0.00
   H2O             5.551e+01   9.984e-01     1.744    -0.001     0.000     17.93
H(0)          1.446e-25
   H2              7.231e-26   7.231e-26   -25.141   -25.141     0.000     20.00
N(-3)         1.460e-25
   NH4+            1.450e-25   1.449e-25   -24.839   -24.839    -0.000     17.86
   NH3             1.039e-27   1.039e-27   -26.983   -26.983     0.000     (0)  
N(0)          1.883e-01
   N2              9.416e-02   9.416e-02    -1.026    -1.026     0.000     30.00
N(3)          3.138e-36
   NO2-            3.138e-36   3.137e-36   -35.503   -35.504    -0.000     (0)  
N(5)          0.000e+00
   NO3-            0.000e+00   0.000e+00   -42.147   -42.147    -0.000     28.99
O(0)          0.000e+00
   O2              0.000e+00   0.000e+00   -42.225   -42.225     0.000     35.00

------------------------------Saturation indices-------------------------------

	Phase               SI   log IAP   log K(298 K, 181 atm)

	H2(g)           -22.04    -25.14   -3.10  H2
	H2O(g)           -1.45     -0.00    1.45  H2O
	N2(g)             1.99     -1.03   -3.02  N2	 Pressure 181.1 atm, phi 0.972.
	NH3(g)          -28.86    -26.98    1.88  NH3
	O2(g)           -39.22    -42.22   -3.01  O2


------------------
End of simulation.
------------------

-------------------------------------
Reading input data for simulation 12.
-------------------------------------

		SOLUTION 1
	 temp 25
	 pH 3 charge
	N 1 N2(g)   2.3034e+00
	pressure   2.0110e+02
	END
-------------------------------------------
Beginning of initial solution calculations.
-------------------------------------------

Initial solution 1.	

-----------------------------Solution composition------------------------------

	Elements           Molality       Moles

	N                 2.045e-01   2.045e-01  Equilibrium with N2(g)

----------------------------Description of solution----------------------------

                                       pH  =   6.960      Charge balance
                                       pe  =   4.000    
       Specific Conductance (uS/cm, 25 oC) = 0
                          Density (g/cm3)  =   1.00558
                        Activity of water  =   0.998
                           Ionic strength  =   1.097e-07
                       Mass of water (kg)  =   1.000e+00
                 Total alkalinity (eq/kg)  =   3.485e-17
                    Total carbon (mol/kg)  =   0.000e+00
                       Total CO2 (mol/kg)  =   0.000e+00
                      Temperature (deg C)  =  25.00
                           Pressure (atm)  = 201.10
                  Electrical balance (eq)  =  -3.485e-17
 Percent error, 100*(Cat-|An|)/(Cat+|An|)  =  -0.00
                               Iterations  =  16
                                  Total H  = 1.110124e+02
                                  Total O  = 5.550622e+01

----------------------------Distribution of species----------------------------

                                            Log       Log         Log     mole V
   Species          Molality    Activity  Molality  Activity     Gamma   cm3/mol

   OH-             1.097e-07   1.097e-07    -6.960    -6.960    -0.000     -3.01
   H+              1.097e-07   1.097e-07    -6.960    -6.960    -0.000      0.00
   H2O             5.551e+01   9.983e-01     1.744    -0.001     0.000     17.91
H(0)          1.446e-25
   H2              7.231e-26   7.231e-26   -25.141   -25.141     0.000     20.00
N(-3)         1.569e-25
   NH4+            1.557e-25   1.557e-25   -24.808   -24.808    -0.000     17.86
   NH3             1.146e-27   1.146e-27   -26.941   -26.941     0.000     (0)  
N(0)          2.045e-01
   N2              1.023e-01   1.023e-01    -0.990    -0.990     0.000     30.00
N(3)          3.268e-36
   NO2-            3.268e-36   3.267e-36   -35.486   -35.486    -0.000     (0)  
N(5)          0.000e+00
   NO3-            0.000e+00   0.000e+00   -42.137   -42.137    -0.000     28.99
O(0)          0.000e+00
   O2              0.000e+00   0.000e+00   -42.239   -42.239     0.000     35.00

------------------------------Saturation indices-------------------------------

	Phase               SI   log IAP   log K(298 K, 201 atm)

	H2(g)           -22.04    -25.14   -3.10  H2
	H2O(g)           -1.44     -0.00    1.44  H2O
	N2(g)             2.01     -0.99   -3.00  N2	 Pressure 201.1 atm, phi 0.974.
	NH3(g)          -28.82    -26.94    1.88  NH3
	O2(g)           -39.22    -42.24   -3.02  O2


------------------
End of simulation.
------------------

-------------------------------------
Reading input data for simulation 13.
-------------------------------------

		SOLUTION 1
	 temp 25
	 pH 3 charge
	N 1 N2(g)   2.3446e+00
	pressure   2.2110e+02
	END
-------------------------------------------
Beginning of initial solution calculations.
-------------------------------------------

Initial solution 1.	

-----------------------------Solution composition------------------------------

	Elements           Molality       Moles

	N                 2.202e-01   2.202e-01  Equilibrium with N2(g)

----------------------------Description of solution----------------------------

                                       pH  =   6.956      Charge balance
                                       pe  =   4.000    
       Specific Conductance (uS/cm, 25 oC) = 0
                          Density (g/cm3)  =   1.00643
                        Activity of water  =   0.998
                           Ionic strength  =   1.106e-07
                       Mass of water (kg)  =   1.000e+00
                 Total alkalinity (eq/kg)  =   2.904e-17
                    Total carbon (mol/kg)  =   0.000e+00
                       Total CO2 (mol/kg)  =   0.000e+00
                      Temperature (deg C)  =  25.00
                           Pressure (atm)  = 221.10
                  Electrical balance (eq)  =  -2.904e-17
 Percent error, 100*(Cat-|An|)/(Cat+|An|)  =  -0.00
                               Iterations  =  16
                                  Total H  = 1.110124e+02
                                  Total O  = 5.550622e+01

----------------------------Distribution of species----------------------------

                                            Log       Log         Log     mole V
   Species          Molality    Activity  Molality  Activity     Gamma   cm3/mol

   OH-             1.106e-07   1.106e-07    -6.956    -6.956    -0.000     -2.93
   H+              1.106e-07   1.106e-07    -6.956    -6.956    -0.000      0.00
   H2O             5.551e+01   9.981e-01     1.744    -0.001     0.000     17.90
H(0)          1.446e-25
   H2              7.229e-26   7.229e-26   -25.141   -25.141     0.000     20.00
N(-3)         1.677e-25
   NH4+            1.665e-25   1.664e-25   -24.779   -24.779    -0.000     17.86
   NH3             1.258e-27   1.258e-27   -26.900   -26.900     0.000     (0)  
N(0)          2.202e-01
   N2              1.101e-01   1.101e-01    -0.958    -0.958     0.000     30.00
N(3)          3.389e-36
   NO2-            3.389e-36   3.387e-36   -35.470   -35.470    -0.000     (0)  
N(5)          0.000e+00
   NO3-            0.000e+00   0.000e+00   -42.128   -42.128    -0.000     28.99
O(0)          0.000e+00
   O2              0.000e+00   0.000e+00   -42.253   -42.253     0.000     35.00

------------------------------Saturation indices-------------------------------

	Phase               SI   log IAP   log K(298 K, 221 atm)

	H2(g)           -22.04    -25.14   -3.10  H2
	H2O(g)           -1.43     -0.00    1.43  H2O
	N2(g)             2.02     -0.96   -2.98  N2	 Pressure 221.1 atm, phi 0.977.
	NH3(g)          -28.79    -26.90    1.89  NH3
	O2(g)           -39.22    -42.25   -3.03  O2


------------------
End of simulation.
------------------

-------------------------------------
Reading input data for simulation 14.
-------------------------------------

		SOLUTION 1
	 temp 25
	 pH 3 charge
	N 1 N2(g)   2.3822e+00
	pressure   2.4110e+02
	END
-------------------------------------------
Beginning of initial solution calculations.
-------------------------------------------

Initial solution 1.	

-----------------------------Solution composition------------------------------

	Elements           Molality       Moles

	N                 2.353e-01   2.353e-01  Equilibrium with N2(g)

----------------------------Description of solution----------------------------

                                       pH  =   6.953      Charge balance
                                       pe  =   4.000    
       Specific Conductance (uS/cm, 25 oC) = 0
                          Density (g/cm3)  =   1.00728
                        Activity of water  =   0.998
                           Ionic strength  =   1.115e-07
                       Mass of water (kg)  =   1.000e+00
                 Total alkalinity (eq/kg)  =   2.373e-17
                    Total carbon (mol/kg)  =   0.000e+00
                       Total CO2 (mol/kg)  =   0.000e+00
                      Temperature (deg C)  =  25.00
                           Pressure (atm)  = 241.10
                  Electrical balance (eq)  =  -2.373e-17
 Percent error, 100*(Cat-|An|)/(Cat+|An|)  =  -0.00
                               Iterations  =  16
                                  Total H  = 1.110124e+02
                                  Total O  = 5.550622e+01

----------------------------Distribution of species----------------------------

                                            Log       Log         Log     mole V
   Species          Molality    Activity  Molality  Activity     Gamma   cm3/mol

   OH-             1.115e-07   1.115e-07    -6.953    -6.953    -0.000     -2.86
   H+              1.115e-07   1.115e-07    -6.953    -6.953    -0.000      0.00
   H2O             5.551e+01   9.980e-01     1.744    -0.001     0.000     17.88
H(0)          1.445e-25
   H2              7.227e-26   7.227e-26   -25.141   -25.141     0.000     20.00
N(-3)         1.786e-25
   NH4+            1.773e-25   1.772e-25   -24.751   -24.752    -0.000     17.86
   NH3             1.375e-27   1.375e-27   -26.862   -26.862     0.000     (0)  
N(0)          2.353e-01
   N2              1.176e-01   1.176e-01    -0.929    -0.929     0.000     30.00
N(3)          3.502e-36
   NO2-            3.502e-36   3.501e-36   -35.456   -35.456    -0.000     (0)  
N(5)          0.000e+00
   NO3-            0.000e+00   0.000e+00   -42.121   -42.121    -0.000     28.99
O(0)          0.000e+00
   O2              0.000e+00   0.000e+00   -42.267   -42.267     0.000     35.00

------------------------------Saturation indices-------------------------------

	Phase               SI   log IAP   log K(298 K, 241 atm)

	H2(g)           -22.04    -25.14   -3.10  H2
	H2O(g)           -1.43     -0.00    1.43  H2O
	N2(g)             2.04     -0.93   -2.97  N2	 Pressure 241.1 atm, phi 0.982.
	NH3(g)          -28.76    -26.86    1.90  NH3
	O2(g)           -39.22    -42.27   -3.04  O2


------------------
End of simulation.
------------------

-------------------------------------
Reading input data for simulation 15.
-------------------------------------

		SOLUTION 1
	 temp 25
	 pH 3 charge
	N 1 N2(g)   2.4168e+00
	pressure   2.6110e+02
	END
-------------------------------------------
Beginning of initial solution calculations.
-------------------------------------------

Initial solution 1.	

-----------------------------Solution composition------------------------------

	Elements           Molality       Moles

	N                 2.498e-01   2.498e-01  Equilibrium with N2(g)

----------------------------Description of solution----------------------------

                                       pH  =   6.949      Charge balance
                                       pe  =   4.000    
       Specific Conductance (uS/cm, 25 oC) = 0
                          Density (g/cm3)  =   1.00813
                        Activity of water  =   0.998
                           Ionic strength  =   1.124e-07
                       Mass of water (kg)  =   1.000e+00
                 Total alkalinity (eq/kg)  =   1.906e-17
                    Total carbon (mol/kg)  =   0.000e+00
                       Total CO2 (mol/kg)  =   0.000e+00
                      Temperature (deg C)  =  25.00
                           Pressure (atm)  = 261.10
                  Electrical balance (eq)  =  -1.906e-17
 Percent error, 100*(Cat-|An|)/(Cat+|An|)  =  -0.00
                               Iterations  =  16
                                  Total H  = 1.110124e+02
                                  Total O  = 5.550622e+01

----------------------------Distribution of species----------------------------

                                            Log       Log         Log     mole V
   Species          Molality    Activity  Molality  Activity     Gamma   cm3/mol

   OH-             1.124e-07   1.123e-07    -6.949    -6.949    -0.000     -2.78
   H+              1.124e-07   1.123e-07    -6.949    -6.949    -0.000      0.00
   H2O             5.551e+01   9.979e-01     1.744    -0.001     0.000     17.87
H(0)          1.445e-25
   H2              7.223e-26   7.223e-26   -25.141   -25.141     0.000     20.00
N(-3)         1.896e-25
   NH4+            1.881e-25   1.880e-25   -24.726   -24.726    -0.000     17.86
   NH3             1.498e-27   1.498e-27   -26.824   -26.824     0.000     (0)  
N(0)          2.498e-01
   N2              1.249e-01   1.249e-01    -0.903    -0.903     0.000     30.00
N(3)          3.609e-36
   NO2-            3.609e-36   3.607e-36   -35.443   -35.443    -0.000     (0)  
N(5)          0.000e+00
   NO3-            0.000e+00   0.000e+00   -42.115   -42.115    -0.000     28.99
O(0)          0.000e+00
   O2              0.000e+00   0.000e+00   -42.281   -42.281     0.000     35.00

------------------------------Saturation indices-------------------------------

	Phase               SI   log IAP   log K(298 K, 261 atm)

	H2(g)           -22.04    -25.14   -3.10  H2
	H2O(g)           -1.42     -0.00    1.42  H2O
	N2(g)             2.05     -0.90   -2.95  N2	 Pressure 261.1 atm, phi 0.986.
	NH3(g)          -28.73    -26.82    1.91  NH3
	O2(g)           -39.22    -42.28   -3.06  O2


------------------
End of simulation.
------------------

-------------------------------------
Reading input data for simulation 16.
-------------------------------------

		SOLUTION 1
	 temp 25
	 pH 3 charge
	N 1 N2(g)   2.4489e+00
	pressure   2.8110e+02
	END
-------------------------------------------
Beginning of initial solution calculations.
-------------------------------------------

Initial solution 1.	

-----------------------------Solution composition------------------------------

	Elements           Molality       Moles

	N                 2.640e-01   2.640e-01  Equilibrium with N2(g)

----------------------------Description of solution----------------------------

                                       pH  =   6.946      Charge balance
                                       pe  =   4.000    
       Specific Conductance (uS/cm, 25 oC) = 0
                          Density (g/cm3)  =   1.00897
                        Activity of water  =   0.998
                           Ionic strength  =   1.133e-07
                       Mass of water (kg)  =   1.000e+00
                 Total alkalinity (eq/kg)  =   1.506e-17
                    Total carbon (mol/kg)  =   0.000e+00
                       Total CO2 (mol/kg)  =   0.000e+00
                      Temperature (deg C)  =  25.00
                           Pressure (atm)  = 281.10
                  Electrical balance (eq)  =  -1.506e-17
 Percent error, 100*(Cat-|An|)/(Cat+|An|)  =  -0.00
                               Iterations  =  16
                                  Total H  = 1.110124e+02
                                  Total O  = 5.550622e+01

----------------------------Distribution of species----------------------------

                                            Log       Log         Log     mole V
   Species          Molality    Activity  Molality  Activity     Gamma   cm3/mol

   OH-             1.133e-07   1.132e-07    -6.946    -6.946    -0.000     -2.71
   H+              1.133e-07   1.132e-07    -6.946    -6.946    -0.000      0.00
   H2O             5.551e+01   9.978e-01     1.744    -0.001     0.000     17.85
H(0)          1.444e-25
   H2              7.219e-26   7.219e-26   -25.142   -25.142     0.000     20.00
N(-3)         2.007e-25
   NH4+            1.991e-25   1.990e-25   -24.701   -24.701    -0.000     17.86
   NH3             1.628e-27   1.628e-27   -26.788   -26.788     0.000     (0)  
N(0)          2.640e-01
   N2              1.320e-01   1.320e-01    -0.879    -0.879     0.000     30.00
N(3)          3.710e-36
   NO2-            3.710e-36   3.708e-36   -35.431   -35.431    -0.000     (0)  
N(5)          0.000e+00
   NO3-            0.000e+00   0.000e+00   -42.110   -42.110    -0.000     28.99
O(0)          0.000e+00
   O2              0.000e+00   0.000e+00   -42.294   -42.294     0.000     35.00

------------------------------Saturation indices-------------------------------

	Phase               SI   log IAP   log K(298 K, 281 atm)

	H2(g)           -22.04    -25.14   -3.10  H2
	H2O(g)           -1.42     -0.00    1.41  H2O
	N2(g)             2.05     -0.88   -2.93  N2	 Pressure 281.1 atm, phi 0.992.
	NH3(g)          -28.71    -26.79    1.92  NH3
	O2(g)           -39.22    -42.29   -3.07  O2


------------------
End of simulation.
------------------

-------------------------------------
Reading input data for simulation 17.
-------------------------------------

		SOLUTION 1
	 temp 25
	 pH 3 charge
	N 1 N2(g)   2.4787e+00
	pressure   3.0110e+02
	END
-------------------------------------------
Beginning of initial solution calculations.
-------------------------------------------

Initial solution 1.	

-----------------------------Solution composition------------------------------

	Elements           Molality       Moles

	N                 2.776e-01   2.776e-01  Equilibrium with N2(g)

----------------------------Description of solution----------------------------

                                       pH  =   6.943      Charge balance
                                       pe  =   4.000    
       Specific Conductance (uS/cm, 25 oC) = 0
                          Density (g/cm3)  =   1.00982
                        Activity of water  =   0.998
                           Ionic strength  =   1.142e-07
                       Mass of water (kg)  =   1.000e+00
                 Total alkalinity (eq/kg)  =   1.171e-17
                    Total carbon (mol/kg)  =   0.000e+00
                       Total CO2 (mol/kg)  =   0.000e+00
                      Temperature (deg C)  =  25.00
                           Pressure (atm)  = 301.10
                  Electrical balance (eq)  =  -1.171e-17
 Percent error, 100*(Cat-|An|)/(Cat+|An|)  =  -0.00
                               Iterations  =  16
                                  Total H  = 1.110124e+02
                                  Total O  = 5.550622e+01

----------------------------Distribution of species----------------------------

                                            Log       Log         Log     mole V
   Species          Molality    Activity  Molality  Activity     Gamma   cm3/mol

   OH-             1.142e-07   1.141e-07    -6.942    -6.943    -0.000     -2.63
   H+              1.142e-07   1.141e-07    -6.942    -6.943    -0.000      0.00
   H2O             5.551e+01   9.976e-01     1.744    -0.001     0.000     17.84
H(0)          1.443e-25
   H2              7.213e-26   7.213e-26   -25.142   -25.142     0.000     20.00
N(-3)         2.119e-25
   NH4+            2.101e-25   2.100e-25   -24.678   -24.678    -0.000     17.86
   NH3             1.764e-27   1.764e-27   -26.754   -26.754     0.000     (0)  
N(0)          2.776e-01
   N2              1.388e-01   1.388e-01    -0.858    -0.858     0.000     30.00
N(3)          3.806e-36
   NO2-            3.806e-36   3.805e-36   -35.420   -35.420    -0.000     (0)  
N(5)          0.000e+00
   NO3-            0.000e+00   0.000e+00   -42.105   -42.105    -0.000     28.99
O(0)          0.000e+00
   O2              0.000e+00   0.000e+00   -42.308   -42.308     0.000     35.00

------------------------------Saturation indices-------------------------------

	Phase               SI   log IAP   log K(298 K, 301 atm)

	H2(g)           -22.04    -25.14   -3.10  H2
	H2O(g)           -1.41     -0.00    1.41  H2O
	N2(g)             2.06     -0.86   -2.91  N2	 Pressure 301.1 atm, phi 0.998.
	NH3(g)          -28.68    -26.75    1.93  NH3
	O2(g)           -39.23    -42.31   -3.08  O2


------------------
End of simulation.
------------------

-------------------------------------
Reading input data for simulation 18.
-------------------------------------

		SOLUTION 1
	 temp 25
	 pH 3 charge
	N 1 N2(g)   2.5066e+00
	pressure   3.2110e+02
	END
-------------------------------------------
Beginning of initial solution calculations.
-------------------------------------------

Initial solution 1.	

-----------------------------Solution composition------------------------------

	Elements           Molality       Moles

	N                 2.909e-01   2.909e-01  Equilibrium with N2(g)

----------------------------Description of solution----------------------------

                                       pH  =   6.939      Charge balance
                                       pe  =   4.000    
       Specific Conductance (uS/cm, 25 oC) = 0
                          Density (g/cm3)  =   1.01065
                        Activity of water  =   0.998
                           Ionic strength  =   1.150e-07
                       Mass of water (kg)  =   1.000e+00
                 Total alkalinity (eq/kg)  =   8.965e-18
                    Total carbon (mol/kg)  =   0.000e+00
                       Total CO2 (mol/kg)  =   0.000e+00
                      Temperature (deg C)  =  25.00
                           Pressure (atm)  = 321.10
                  Electrical balance (eq)  =  -8.965e-18
 Percent error, 100*(Cat-|An|)/(Cat+|An|)  =  -0.00
                               Iterations  =  16
                                  Total H  = 1.110124e+02
                                  Total O  = 5.550622e+01

----------------------------Distribution of species----------------------------

                                            Log       Log         Log     mole V
   Species          Molality    Activity  Molality  Activity     Gamma   cm3/mol

   OH-             1.150e-07   1.150e-07    -6.939    -6.939    -0.000     -2.56
   H+              1.150e-07   1.150e-07    -6.939    -6.939    -0.000      0.00
   H2O             5.551e+01   9.975e-01     1.744    -0.001     0.000     17.82
H(0)          1.441e-25
   H2              7.207e-26   7.207e-26   -25.142   -25.142     0.000     20.00
N(-3)         2.232e-25
   NH4+            2.213e-25   2.212e-25   -24.655   -24.655    -0.000     17.86
   NH3             1.907e-27   1.907e-27   -26.720   -26.720     0.000     (0)  
N(0)          2.909e-01
   N2              1.454e-01   1.454e-01    -0.837    -0.837     0.000     30.00
N(3)          3.898e-36
   NO2-            3.898e-36   3.897e-36   -35.409   -35.409    -0.000     (0)  
N(5)          0.000e+00
   NO3-            0.000e+00   0.000e+00   -42.102   -42.102    -0.000     28.99
O(0)          0.000e+00
   O2              0.000e+00   0.000e+00   -42.321   -42.321     0.000     35.00

------------------------------Saturation indices-------------------------------

	Phase               SI   log IAP   log K(298 K, 321 atm)

	H2(g)           -22.04    -25.14   -3.10  H2
	H2O(g)           -1.40     -0.00    1.40  H2O
	N2(g)             2.06     -0.84   -2.90  N2	 Pressure 321.1 atm, phi 1.005.
	NH3(g)          -28.65    -26.72    1.94  NH3
	O2(g)           -39.23    -42.32   -3.09  O2


------------------
End of simulation.
------------------

-------------------------------------
Reading input data for simulation 19.
-------------------------------------

		SOLUTION 1
	 temp 25
	 pH 3 charge
	N 1 N2(g)   2.5329e+00
	pressure   3.4110e+02
	END
-------------------------------------------
Beginning of initial solution calculations.
-------------------------------------------

Initial solution 1.	

-----------------------------Solution composition------------------------------

	Elements           Molality       Moles

	N                 3.038e-01   3.038e-01  Equilibrium with N2(g)

----------------------------Description of solution----------------------------

                                       pH  =   6.936      Charge balance
                                       pe  =   4.000    
       Specific Conductance (uS/cm, 25 oC) = 0
                          Density (g/cm3)  =   1.01149
                        Activity of water  =   0.997
                           Ionic strength  =   1.159e-07
                       Mass of water (kg)  =   1.000e+00
                 Total alkalinity (eq/kg)  =   6.762e-18
                    Total carbon (mol/kg)  =   0.000e+00
                       Total CO2 (mol/kg)  =   0.000e+00
                      Temperature (deg C)  =  25.00
                           Pressure (atm)  = 341.10
                  Electrical balance (eq)  =  -6.762e-18
 Percent error, 100*(Cat-|An|)/(Cat+|An|)  =  -0.00
                               Iterations  =  16
                                  Total H  = 1.110124e+02
                                  Total O  = 5.550622e+01

----------------------------Distribution of species----------------------------

                                            Log       Log         Log     mole V
   Species          Molality    Activity  Molality  Activity     Gamma   cm3/mol

   OH-             1.159e-07   1.159e-07    -6.936    -6.936    -0.000     -2.48
   H+              1.159e-07   1.159e-07    -6.936    -6.936    -0.000      0.00
   H2O             5.551e+01   9.974e-01     1.744    -0.001     0.000     17.81
H(0)          1.440e-25
   H2              7.199e-26   7.199e-26   -25.143   -25.143     0.000     20.00
N(-3)         2.347e-25
   NH4+            2.327e-25   2.326e-25   -24.633   -24.633    -0.000     17.86
   NH3             2.059e-27   2.059e-27   -26.686   -26.686     0.000     (0)  
N(0)          3.038e-01
   N2              1.519e-01   1.519e-01    -0.818    -0.818     0.000     30.00
N(3)          3.987e-36
   NO2-            3.987e-36   3.986e-36   -35.399   -35.399    -0.000     (0)  
N(5)          0.000e+00
   NO3-            0.000e+00   0.000e+00   -42.098   -42.099    -0.000     28.99
O(0)          0.000e+00
   O2              0.000e+00   0.000e+00   -42.335   -42.335     0.000     35.00

------------------------------Saturation indices-------------------------------

	Phase               SI   log IAP   log K(298 K, 341 atm)

	H2(g)           -22.04    -25.14   -3.10  H2
	H2O(g)           -1.40     -0.00    1.40  H2O
	N2(g)             2.06     -0.82   -2.88  N2	 Pressure 341.1 atm, phi 1.013.
	NH3(g)          -28.63    -26.69    1.94  NH3
	O2(g)           -39.23    -42.33   -3.11  O2


------------------
End of simulation.
------------------

-------------------------------------
Reading input data for simulation 20.
-------------------------------------

		SOLUTION 1
	 temp 25
	 pH 3 charge
	N 1 N2(g)   2.5576e+00
	pressure   3.6110e+02
	END
-------------------------------------------
Beginning of initial solution calculations.
-------------------------------------------

Initial solution 1.	

-----------------------------Solution composition------------------------------

	Elements           Molality       Moles

	N                 3.163e-01   3.163e-01  Equilibrium with N2(g)

----------------------------Description of solution----------------------------

                                       pH  =   6.933      Charge balance
                                       pe  =   4.000    
       Specific Conductance (uS/cm, 25 oC) = 0
                          Density (g/cm3)  =   1.01232
                        Activity of water  =   0.997
                           Ionic strength  =   1.168e-07
                       Mass of water (kg)  =   1.000e+00
                 Total alkalinity (eq/kg)  =   5.018e-18
                    Total carbon (mol/kg)  =   0.000e+00
                       Total CO2 (mol/kg)  =   0.000e+00
                      Temperature (deg C)  =  25.00
                           Pressure (atm)  = 361.10
                  Electrical balance (eq)  =  -5.018e-18
 Percent error, 100*(Cat-|An|)/(Cat+|An|)  =  -0.00
                               Iterations  =  16
                                  Total H  = 1.110124e+02
                                  Total O  = 5.550622e+01

----------------------------Distribution of species----------------------------

                                            Log       Log         Log     mole V
   Species          Molality    Activity  Molality  Activity     Gamma   cm3/mol

   OH-             1.168e-07   1.168e-07    -6.933    -6.933    -0.000     -2.40
   H+              1.168e-07   1.168e-07    -6.933    -6.933    -0.000      0.00
   H2O             5.551e+01   9.973e-01     1.744    -0.001     0.000     17.79
H(0)          1.438e-25
   H2              7.190e-26   7.190e-26   -25.143   -25.143     0.000     20.00
N(-3)         2.464e-25
   NH4+            2.441e-25   2.440e-25   -24.612   -24.613    -0.000     17.86
   NH3             2.218e-27   2.218e-27   -26.654   -26.654     0.000     (0)  
N(0)          3.163e-01
   N2              1.582e-01   1.582e-01    -0.801    -0.801     0.000     30.00
N(3)          4.073e-36
   NO2-            4.073e-36   4.071e-36   -35.390   -35.390    -0.000     (0)  
N(5)          0.000e+00
   NO3-            0.000e+00   0.000e+00   -42.096   -42.096    -0.000     28.99
O(0)          0.000e+00
   O2              0.000e+00   0.000e+00   -42.348   -42.348     0.000     35.00

------------------------------Saturation indices-------------------------------

	Phase               SI   log IAP   log K(298 K, 361 atm)

	H2(g)           -22.04    -25.14   -3.10  H2
	H2O(g)           -1.39     -0.00    1.39  H2O
	N2(g)             2.06     -0.80   -2.86  N2	 Pressure 361.1 atm, phi 1.021.
	NH3(g)          -28.61    -26.65    1.95  NH3
	O2(g)           -39.23    -42.35   -3.12  O2


------------------
End of simulation.
------------------

-------------------------------------
Reading input data for simulation 21.
-------------------------------------

		SOLUTION 1
	 temp 25
	 pH 3 charge
	N 1 N2(g)   2.5810e+00
	pressure   3.8110e+02
	END
-------------------------------------------
Beginning of initial solution calculations.
-------------------------------------------

Initial solution 1.	

-----------------------------Solution composition------------------------------

	Elements           Molality       Moles

	N                 3.285e-01   3.285e-01  Equilibrium with N2(g)

----------------------------Description of solution----------------------------

                                       pH  =   6.929      Charge balance
                                       pe  =   4.000    
       Specific Conductance (uS/cm, 25 oC) = 0
                          Density (g/cm3)  =   1.01315
                        Activity of water  =   0.997
                           Ionic strength  =   1.177e-07
                       Mass of water (kg)  =   1.000e+00
                 Total alkalinity (eq/kg)  =   3.667e-18
                    Total carbon (mol/kg)  =   0.000e+00
                       Total CO2 (mol/kg)  =   0.000e+00
                      Temperature (deg C)  =  25.00
                           Pressure (atm)  = 381.10
                  Electrical balance (eq)  =  -3.667e-18
 Percent error, 100*(Cat-|An|)/(Cat+|An|)  =  -0.00
                               Iterations  =  16
                                  Total H  = 1.110124e+02
                                  Total O  = 5.550622e+01

----------------------------Distribution of species----------------------------

                                            Log       Log         Log     mole V
   Species          Molality    Activity  Molality  Activity     Gamma   cm3/mol

   OH-             1.177e-07   1.176e-07    -6.929    -6.929    -0.000     -2.33
   H+              1.177e-07   1.176e-07    -6.929    -6.929    -0.000      0.00
   H2O             5.551e+01   9.972e-01     1.744    -0.001     0.000     17.78
H(0)          1.436e-25
   H2              7.181e-26   7.181e-26   -25.144   -25.144     0.000     20.00
N(-3)         2.582e-25
   NH4+            2.558e-25   2.557e-25   -24.592   -24.592    -0.000     17.86
   NH3             2.386e-27   2.386e-27   -26.622   -26.622     0.000     (0)  
N(0)          3.285e-01
   N2              1.643e-01   1.643e-01    -0.784    -0.784     0.000     30.00
N(3)          4.156e-36
   NO2-            4.156e-36   4.155e-36   -35.381   -35.381    -0.000     (0)  
N(5)          0.000e+00
   NO3-            0.000e+00   0.000e+00   -42.094   -42.094    -0.000     28.99
O(0)          0.000e+00
   O2              0.000e+00   0.000e+00   -42.361   -42.361     0.000     35.00

------------------------------Saturation indices-------------------------------

	Phase               SI   log IAP   log K(298 K, 381 atm)

	H2(g)           -22.04    -25.14   -3.10  H2
	H2O(g)           -1.38     -0.00    1.38  H2O
	N2(g)             2.06     -0.78   -2.85  N2	 Pressure 381.1 atm, phi 1.030.
	NH3(g)          -28.58    -26.62    1.96  NH3
	O2(g)           -39.23    -42.36   -3.13  O2


------------------
End of simulation.
------------------

-------------------------------------
Reading input data for simulation 22.
-------------------------------------

		SOLUTION 1
	 temp 25
	 pH 3 charge
	N 1 N2(g)   2.6033e+00
	pressure   4.0110e+02
	END
-------------------------------------------
Beginning of initial solution calculations.
-------------------------------------------

Initial solution 1.	

-----------------------------Solution composition------------------------------

	Elements           Molality       Moles

	N                 3.405e-01   3.405e-01  Equilibrium with N2(g)

----------------------------Description of solution----------------------------

                                       pH  =   6.926      Charge balance
                                       pe  =   4.000    
       Specific Conductance (uS/cm, 25 oC) = 0
                          Density (g/cm3)  =   1.01398
                        Activity of water  =   0.997
                           Ionic strength  =   1.186e-07
                       Mass of water (kg)  =   1.000e+00
                 Total alkalinity (eq/kg)  =   2.828e-18
                    Total carbon (mol/kg)  =   0.000e+00
                       Total CO2 (mol/kg)  =   0.000e+00
                      Temperature (deg C)  =  25.00
                           Pressure (atm)  = 401.10
                  Electrical balance (eq)  =  -2.828e-18
 Percent error, 100*(Cat-|An|)/(Cat+|An|)  =  -0.00
                               Iterations  =  16
                                  Total H  = 1.110124e+02
                                  Total O  = 5.550622e+01

----------------------------Distribution of species----------------------------

                                            Log       Log         Log     mole V
   Species          Molality    Activity  Molality  Activity     Gamma   cm3/mol

   OH-             1.186e-07   1.185e-07    -6.926    -6.926    -0.000     -2.25
   H+              1.186e-07   1.185e-07    -6.926    -6.926    -0.000      0.00
   H2O             5.551e+01   9.971e-01     1.744    -0.001     0.000     17.76
H(0)          1.434e-25
   H2              7.170e-26   7.170e-26   -25.144   -25.144     0.000     20.00
N(-3)         2.702e-25
   NH4+            2.676e-25   2.675e-25   -24.572   -24.573    -0.000     17.86
   NH3             2.563e-27   2.563e-27   -26.591   -26.591     0.000     (0)  
N(0)          3.405e-01
   N2              1.703e-01   1.703e-01    -0.769    -0.769     0.000     30.00
N(3)          4.238e-36
   NO2-            4.238e-36   4.236e-36   -35.373   -35.373    -0.000     (0)  
N(5)          0.000e+00
   NO3-            0.000e+00   0.000e+00   -42.092   -42.092    -0.000     28.99
O(0)          0.000e+00
   O2              0.000e+00   0.000e+00   -42.374   -42.374     0.000     35.00

------------------------------Saturation indices-------------------------------

	Phase               SI   log IAP   log K(298 K, 401 atm)

	H2(g)           -22.04    -25.14   -3.10  H2
	H2O(g)           -1.38     -0.00    1.38  H2O
	N2(g)             2.06     -0.77   -2.83  N2	 Pressure 401.1 atm, phi 1.039.
	NH3(g)          -28.56    -26.59    1.97  NH3
	O2(g)           -39.23    -42.37   -3.14  O2


------------------
End of simulation.
------------------

-------------------------------------
Reading input data for simulation 23.
-------------------------------------

		SOLUTION 1
	 temp 25
	 pH 3 charge
	N 1 N2(g)   2.6244e+00
	pressure   4.2110e+02
	END
-------------------------------------------
Beginning of initial solution calculations.
-------------------------------------------

Initial solution 1.	

-----------------------------Solution composition------------------------------

	Elements           Molality       Moles

	N                 3.522e-01   3.522e-01  Equilibrium with N2(g)

----------------------------Description of solution----------------------------

                                       pH  =   6.923      Charge balance
                                       pe  =   4.000    
       Specific Conductance (uS/cm, 25 oC) = 0
                          Density (g/cm3)  =   1.01480
                        Activity of water  =   0.997
                           Ionic strength  =   1.194e-07
                       Mass of water (kg)  =   1.000e+00
                 Total alkalinity (eq/kg)  =   2.323e-18
                    Total carbon (mol/kg)  =   0.000e+00
                       Total CO2 (mol/kg)  =   0.000e+00
                      Temperature (deg C)  =  25.00
                           Pressure (atm)  = 421.10
                  Electrical balance (eq)  =  -2.323e-18
 Percent error, 100*(Cat-|An|)/(Cat+|An|)  =  -0.00
                               Iterations  =  16
                                  Total H  = 1.110124e+02
                                  Total O  = 5.550622e+01

----------------------------Distribution of species----------------------------

                                            Log       Log         Log     mole V
   Species          Molality    Activity  Molality  Activity     Gamma   cm3/mol

   OH-             1.194e-07   1.194e-07    -6.923    -6.923    -0.000     -2.18
   H+              1.194e-07   1.194e-07    -6.923    -6.923    -0.000      0.00
   H2O             5.551e+01   9.970e-01     1.744    -0.001     0.000     17.75
H(0)          1.432e-25
   H2              7.158e-26   7.158e-26   -25.145   -25.145     0.000     20.00
N(-3)         2.824e-25
   NH4+            2.796e-25   2.795e-25   -24.553   -24.554    -0.000     17.86
   NH3             2.749e-27   2.749e-27   -26.561   -26.561     0.000     (0)  
N(0)          3.522e-01
   N2              1.761e-01   1.761e-01    -0.754    -0.754     0.000     30.00
N(3)          4.317e-36
   NO2-            4.317e-36   4.315e-36   -35.365   -35.365    -0.000     (0)  
N(5)          0.000e+00
   NO3-            0.000e+00   0.000e+00   -42.090   -42.090    -0.000     28.99
O(0)          0.000e+00
   O2              0.000e+00   0.000e+00   -42.387   -42.387     0.000     35.00

------------------------------Saturation indices-------------------------------

	Phase               SI   log IAP   log K(298 K, 421 atm)

	H2(g)           -22.04    -25.15   -3.10  H2
	H2O(g)           -1.37     -0.00    1.37  H2O
	N2(g)             2.06     -0.75   -2.81  N2	 Pressure 421.1 atm, phi 1.049.
	NH3(g)          -28.54    -26.56    1.98  NH3
	O2(g)           -39.23    -42.39   -3.16  O2


------------------
End of simulation.
------------------

-------------------------------------
Reading input data for simulation 24.
-------------------------------------

		SOLUTION 1
	 temp 25
	 pH 3 charge
	N 1 N2(g)   2.6445e+00
	pressure   4.4110e+02
	END
-------------------------------------------
Beginning of initial solution calculations.
-------------------------------------------

Initial solution 1.	

-----------------------------Solution composition------------------------------

	Elements           Molality       Moles

	N                 3.635e-01   3.635e-01  Equilibrium with N2(g)

----------------------------Description of solution----------------------------

                                       pH  =   6.920      Charge balance
                                       pe  =   4.000    
       Specific Conductance (uS/cm, 25 oC) = 0
                          Density (g/cm3)  =   1.01562
                        Activity of water  =   0.997
                           Ionic strength  =   1.203e-07
                       Mass of water (kg)  =   1.000e+00
                 Total alkalinity (eq/kg)  =   1.900e-18
[...]
	NH3(g)          -28.28    -26.20    2.08  NH3
	O2(g)           -39.23    -42.54   -3.32  O2


------------------
End of simulation.
------------------

-------------------------------------
Reading input data for simulation 37.
-------------------------------------

		SOLUTION 1
	 temp 25
	 pH 3 charge
	N 1 N2(g)   2.8458e+00
	pressure   7.0110e+02
	END
-------------------------------------------
Beginning of initial solution calculations.
-------------------------------------------

Initial solution 1.	

-----------------------------Solution composition------------------------------

	Elements           Molality       Moles

	N                 4.913e-01   4.913e-01  Equilibrium with N2(g)

----------------------------Description of solution----------------------------

                                       pH  =   6.882      Charge balance
                                       pe  =   4.000    
       Specific Conductance (uS/cm, 25 oC) = 0
                          Density (g/cm3)  =   1.02600
                        Activity of water  =   0.996
                           Ionic strength  =   1.314e-07
                       Mass of water (kg)  =   1.000e+00
                 Total alkalinity (eq/kg)  =   9.217e-20
                    Total carbon (mol/kg)  =   0.000e+00
                       Total CO2 (mol/kg)  =   0.000e+00
                      Temperature (deg C)  =  25.00
                           Pressure (atm)  = 701.10
                  Electrical balance (eq)  =  -9.217e-20
 Percent error, 100*(Cat-|An|)/(Cat+|An|)  =  -0.00
                               Iterations  =  16
                                  Total H  = 1.110124e+02
                                  Total O  = 5.550622e+01

----------------------------Distribution of species----------------------------

                                            Log       Log         Log     mole V
   Species          Molality    Activity  Molality  Activity     Gamma   cm3/mol

   OH-             1.314e-07   1.314e-07    -6.881    -6.882    -0.000     -1.12
   H+              1.314e-07   1.314e-07    -6.881    -6.882    -0.000      0.00
   H2O             5.551e+01   9.958e-01     1.744    -0.002     0.000     17.55
H(0)          1.378e-25
   H2              6.892e-26   6.892e-26   -25.162   -25.162     0.000     20.00
N(-3)         4.750e-25
   NH4+            4.683e-25   4.682e-25   -24.329   -24.330    -0.000     17.86
   NH3             6.662e-27   6.662e-27   -26.176   -26.176     0.000     (0)  
N(0)          4.913e-01
   N2              2.457e-01   2.457e-01    -0.610    -0.610     0.000     30.00
N(3)          5.349e-36
   NO2-            5.349e-36   5.347e-36   -35.272   -35.272    -0.000     (0)  
N(5)          0.000e+00
   NO3-            0.000e+00   0.000e+00   -42.080   -42.081    -0.000     28.99
O(0)          0.000e+00
   O2              0.000e+00   0.000e+00   -42.556   -42.556     0.000     35.00

------------------------------Saturation indices-------------------------------

	Phase               SI   log IAP   log K(298 K, 701 atm)

	H2(g)           -22.06    -25.16   -3.10  H2
	H2O(g)           -1.29     -0.00    1.28  H2O
	N2(g)             1.98     -0.61   -2.59  N2	 Pressure 701.1 atm, phi 1.239.
	NH3(g)          -28.27    -26.18    2.09  NH3
	O2(g)           -39.23    -42.56   -3.33  O2


------------------
End of simulation.
------------------

-------------------------------------
Reading input data for simulation 38.
-------------------------------------

		SOLUTION 1
	 temp 25
	 pH 3 charge
	N 1 N2(g)   2.8580e+00
	pressure   7.2110e+02
	END
-------------------------------------------
Beginning of initial solution calculations.
-------------------------------------------

Initial solution 1.	

-----------------------------Solution composition------------------------------

	Elements           Molality       Moles

	N                 4.999e-01   4.999e-01  Equilibrium with N2(g)

----------------------------Description of solution----------------------------

                                       pH  =   6.879      Charge balance
                                       pe  =   4.000    
       Specific Conductance (uS/cm, 25 oC) = 0
                          Density (g/cm3)  =   1.02678
                        Activity of water  =   0.996
                           Ionic strength  =   1.322e-07
                       Mass of water (kg)  =   1.000e+00
                 Total alkalinity (eq/kg)  =   6.842e-20
                    Total carbon (mol/kg)  =   0.000e+00
                       Total CO2 (mol/kg)  =   0.000e+00
                      Temperature (deg C)  =  25.00
                           Pressure (atm)  = 721.10
                  Electrical balance (eq)  =  -6.842e-20
 Percent error, 100*(Cat-|An|)/(Cat+|An|)  =  -0.00
                               Iterations  =  16
                                  Total H  = 1.110124e+02
                                  Total O  = 5.550622e+01

----------------------------Distribution of species----------------------------

                                            Log       Log         Log     mole V
   Species          Molality    Activity  Molality  Activity     Gamma   cm3/mol

   OH-             1.322e-07   1.322e-07    -6.879    -6.879    -0.000     -1.05
   H+              1.322e-07   1.322e-07    -6.879    -6.879    -0.000      0.00
   H2O             5.551e+01   9.958e-01     1.744    -0.002     0.000     17.53
H(0)          1.373e-25
   H2              6.866e-26   6.866e-26   -25.163   -25.163     0.000     20.00
N(-3)         4.904e-25
   NH4+            4.833e-25   4.831e-25   -24.316   -24.316    -0.000     17.86
   NH3             7.059e-27   7.059e-27   -26.151   -26.151     0.000     (0)  
N(0)          4.999e-01
   N2              2.499e-01   2.499e-01    -0.602    -0.602     0.000     30.00
N(3)          5.423e-36
   NO2-            5.423e-36   5.421e-36   -35.266   -35.266    -0.000     (0)  
N(5)          0.000e+00
   NO3-            0.000e+00   0.000e+00   -42.080   -42.080    -0.000     28.99
O(0)          0.000e+00
   O2              0.000e+00   0.000e+00   -42.568   -42.568     0.000     35.00

------------------------------Saturation indices-------------------------------

	Phase               SI   log IAP   log K(298 K, 721 atm)

	H2(g)           -22.06    -25.16   -3.10  H2
	H2O(g)           -1.28     -0.00    1.28  H2O
	N2(g)             1.97     -0.60   -2.57  N2	 Pressure 721.1 atm, phi 1.256.
	NH3(g)          -28.25    -26.15    2.10  NH3
	O2(g)           -39.23    -42.57   -3.34  O2


------------------
End of simulation.
------------------

-------------------------------------
Reading input data for simulation 39.
-------------------------------------

		SOLUTION 1
	 temp 25
	 pH 3 charge
	N 1 N2(g)   2.8699e+00
	pressure   7.4110e+02
	END
-------------------------------------------
Beginning of initial solution calculations.
-------------------------------------------

Initial solution 1.	

-----------------------------Solution composition------------------------------

	Elements           Molality       Moles

	N                 5.083e-01   5.083e-01  Equilibrium with N2(g)

----------------------------Description of solution----------------------------

                                       pH  =   6.876      Charge balance
                                       pe  =   4.000    
       Specific Conductance (uS/cm, 25 oC) = 0
                          Density (g/cm3)  =   1.02755
                        Activity of water  =   0.996
                           Ionic strength  =   1.331e-07
                       Mass of water (kg)  =   1.000e+00
                 Total alkalinity (eq/kg)  =   5.035e-20
                    Total carbon (mol/kg)  =   0.000e+00
                       Total CO2 (mol/kg)  =   0.000e+00
                      Temperature (deg C)  =  25.00
                           Pressure (atm)  = 741.10
                  Electrical balance (eq)  =  -5.035e-20
 Percent error, 100*(Cat-|An|)/(Cat+|An|)  =  -0.00
                               Iterations  =  16
                                  Total H  = 1.110124e+02
                                  Total O  = 5.550622e+01

----------------------------Distribution of species----------------------------

                                            Log       Log         Log     mole V
   Species          Molality    Activity  Molality  Activity     Gamma   cm3/mol

   OH-             1.331e-07   1.330e-07    -6.876    -6.876    -0.000     -0.97
   H+              1.331e-07   1.330e-07    -6.876    -6.876    -0.000      0.00
   H2O             5.551e+01   9.957e-01     1.744    -0.002     0.000     17.52
H(0)          1.368e-25
   H2              6.839e-26   6.839e-26   -25.165   -25.165     0.000     20.00
N(-3)         5.059e-25
   NH4+            4.985e-25   4.983e-25   -24.302   -24.303    -0.000     17.86
   NH3             7.476e-27   7.476e-27   -26.126   -26.126     0.000     (0)  
N(0)          5.083e-01
   N2              2.542e-01   2.542e-01    -0.595    -0.595     0.000     30.00
N(3)          5.498e-36
   NO2-            5.498e-36   5.496e-36   -35.260   -35.260    -0.000     (0)  
N(5)          0.000e+00
   NO3-            0.000e+00   0.000e+00   -42.079   -42.080    -0.000     28.99
O(0)          0.000e+00
   O2              0.000e+00   0.000e+00   -42.579   -42.579     0.000     35.00

------------------------------Saturation indices-------------------------------

	Phase               SI   log IAP   log K(298 K, 741 atm)

	H2(g)           -22.06    -25.17   -3.10  H2
	H2O(g)           -1.27     -0.00    1.27  H2O
	N2(g)             1.96     -0.59   -2.56  N2	 Pressure 741.1 atm, phi 1.274.
	NH3(g)          -28.23    -26.13    2.11  NH3
	O2(g)           -39.23    -42.58   -3.35  O2


------------------
End of simulation.
------------------

-------------------------------------
Reading input data for simulation 40.
-------------------------------------

		SOLUTION 1
	 temp 25
	 pH 3 charge
	N 1 N2(g)   2.8814e+00
	pressure   7.6110e+02
	END
-------------------------------------------
Beginning of initial solution calculations.
-------------------------------------------

Initial solution 1.	

-----------------------------Solution composition------------------------------

	Elements           Molality       Moles

	N                 5.165e-01   5.165e-01  Equilibrium with N2(g)

----------------------------Description of solution----------------------------

                                       pH  =   6.873      Charge balance
                                       pe  =   4.000    
       Specific Conductance (uS/cm, 25 oC) = 0
                          Density (g/cm3)  =   1.02832
                        Activity of water  =   0.996
                           Ionic strength  =   1.339e-07
                       Mass of water (kg)  =   1.000e+00
                 Total alkalinity (eq/kg)  =   3.669e-20
                    Total carbon (mol/kg)  =   0.000e+00
                       Total CO2 (mol/kg)  =   0.000e+00
                      Temperature (deg C)  =  25.00
                           Pressure (atm)  = 761.10
                  Electrical balance (eq)  =  -3.669e-20
 Percent error, 100*(Cat-|An|)/(Cat+|An|)  =  -0.00
                               Iterations  =  16
                                  Total H  = 1.110124e+02
                                  Total O  = 5.550622e+01

----------------------------Distribution of species----------------------------

                                            Log       Log         Log     mole V
   Species          Molality    Activity  Molality  Activity     Gamma   cm3/mol

   OH-             1.339e-07   1.338e-07    -6.873    -6.873    -0.000     -0.90
   H+              1.339e-07   1.338e-07    -6.873    -6.873    -0.000      0.00
   H2O             5.551e+01   9.956e-01     1.744    -0.002     0.000     17.51
H(0)          1.362e-25
   H2              6.811e-26   6.811e-26   -25.167   -25.167     0.000     20.00
N(-3)         5.217e-25
   NH4+            5.138e-25   5.135e-25   -24.289   -24.289    -0.000     17.86
   NH3             7.912e-27   7.912e-27   -26.102   -26.102     0.000     (0)  
N(0)          5.165e-01
   N2              2.582e-01   2.582e-01    -0.588    -0.588     0.000     30.00
N(3)          5.573e-36
   NO2-            5.573e-36   5.571e-36   -35.254   -35.254    -0.000     (0)  
N(5)          0.000e+00
   NO3-            0.000e+00   0.000e+00   -42.079   -42.079    -0.000     28.99
O(0)          0.000e+00
   O2              0.000e+00   0.000e+00   -42.590   -42.590     0.000     35.00

------------------------------Saturation indices-------------------------------

	Phase               SI   log IAP   log K(298 K, 761 atm)

	H2(g)           -22.07    -25.17   -3.10  H2
	H2O(g)           -1.27     -0.00    1.27  H2O
	N2(g)             1.95     -0.59   -2.54  N2	 Pressure 761.0 atm, phi 1.292.
	NH3(g)          -28.22    -26.10    2.11  NH3
	O2(g)           -39.23    -42.59   -3.36  O2


------------------
End of simulation.
------------------

-------------------------------------
Reading input data for simulation 41.
-------------------------------------

		SOLUTION 1
	 temp 25
	 pH 3 charge
	N 1 N2(g)   2.8927e+00
	pressure   7.8110e+02
	END
-------------------------------------------
Beginning of initial solution calculations.
-------------------------------------------

Initial solution 1.	

-----------------------------Solution composition------------------------------

	Elements           Molality       Moles

	N                 5.247e-01   5.247e-01  Equilibrium with N2(g)

----------------------------Description of solution----------------------------

                                       pH  =   6.871      Charge balance
                                       pe  =   4.000    
       Specific Conductance (uS/cm, 25 oC) = 0
                          Density (g/cm3)  =   1.02909
                        Activity of water  =   0.996
                           Ionic strength  =   1.347e-07
                       Mass of water (kg)  =   1.000e+00
                 Total alkalinity (eq/kg)  =   2.615e-20
                    Total carbon (mol/kg)  =   0.000e+00
                       Total CO2 (mol/kg)  =   0.000e+00
                      Temperature (deg C)  =  25.00
                           Pressure (atm)  = 781.10
                  Electrical balance (eq)  =  -2.615e-20
 Percent error, 100*(Cat-|An|)/(Cat+|An|)  =  -0.00
                               Iterations  =  16
                                  Total H  = 1.110124e+02
                                  Total O  = 5.550622e+01

----------------------------Distribution of species----------------------------

                                            Log       Log         Log     mole V
   Species          Molality    Activity  Molality  Activity     Gamma   cm3/mol

   OH-             1.347e-07   1.346e-07    -6.871    -6.871    -0.000     -0.82
   H+              1.347e-07   1.346e-07    -6.871    -6.871    -0.000      0.00
   H2O             5.551e+01   9.955e-01     1.744    -0.002     0.000     17.49
H(0)          1.357e-25
   H2              6.783e-26   6.783e-26   -25.169   -25.169     0.000     20.00
N(-3)         5.377e-25
   NH4+            5.293e-25   5.291e-25   -24.276   -24.276    -0.000     17.86
   NH3             8.370e-27   8.370e-27   -26.077   -26.077     0.000     (0)  
N(0)          5.247e-01
   N2              2.623e-01   2.623e-01    -0.581    -0.581     0.000     30.00
N(3)          5.650e-36
   NO2-            5.650e-36   5.647e-36   -35.248   -35.248    -0.000     (0)  
N(5)          0.000e+00
   NO3-            0.000e+00   0.000e+00   -42.078   -42.078    -0.000     28.99
O(0)          0.000e+00
   O2              0.000e+00   0.000e+00   -42.601   -42.601     0.000     35.00

------------------------------Saturation indices-------------------------------

	Phase               SI   log IAP   log K(298 K, 781 atm)

	H2(g)           -22.07    -25.17   -3.10  H2
	H2O(g)           -1.26     -0.00    1.26  H2O
	N2(g)             1.94     -0.58   -2.53  N2	 Pressure 781.1 atm, phi 1.310.
	NH3(g)          -28.20    -26.08    2.12  NH3
	O2(g)           -39.22    -42.60   -3.38  O2


------------------
End of simulation.
------------------

-------------------------------------
Reading input data for simulation 42.
-------------------------------------

		SOLUTION 1
	 temp 25
	 pH 3 charge
	N 1 N2(g)   2.9037e+00
	pressure   8.0110e+02
	END
-------------------------------------------
Beginning of initial solution calculations.
-------------------------------------------

Initial solution 1.	

-----------------------------Solution composition------------------------------

	Elements           Molality       Moles

	N                 5.327e-01   5.327e-01  Equilibrium with N2(g)

----------------------------Description of solution----------------------------

                                       pH  =   6.868      Charge balance
                                       pe  =   4.000    
       Specific Conductance (uS/cm, 25 oC) = 0
                          Density (g/cm3)  =   1.02985
                        Activity of water  =   0.995
                           Ionic strength  =   1.355e-07
                       Mass of water (kg)  =   1.000e+00
                 Total alkalinity (eq/kg)  =   1.498e-20
                    Total carbon (mol/kg)  =   0.000e+00
                       Total CO2 (mol/kg)  =   0.000e+00
                      Temperature (deg C)  =  25.00
                           Pressure (atm)  = 801.10
                  Electrical balance (eq)  =  -1.498e-20
 Percent error, 100*(Cat-|An|)/(Cat+|An|)  =  -0.00
                               Iterations  =  16
                                  Total H  = 1.110124e+02
                                  Total O  = 5.550622e+01

----------------------------Distribution of species----------------------------

                                            Log       Log         Log     mole V
   Species          Molality    Activity  Molality  Activity     Gamma   cm3/mol

   OH-             1.355e-07   1.355e-07    -6.868    -6.868    -0.000     -0.75
   H+              1.355e-07   1.355e-07    -6.868    -6.868    -0.000      0.00
   H2O             5.551e+01   9.955e-01     1.744    -0.002     0.000     17.48
H(0)          1.351e-25
   H2              6.753e-26   6.753e-26   -25.170   -25.170     0.000     20.00
N(-3)         5.539e-25
   NH4+            5.450e-25   5.448e-25   -24.264   -24.264    -0.000     17.86
   NH3             8.850e-27   8.850e-27   -26.053   -26.053     0.000     (0)  
N(0)          5.327e-01
   N2              2.664e-01   2.664e-01    -0.575    -0.575     0.000     30.00
N(3)          5.727e-36
   NO2-            5.727e-36   5.725e-36   -35.242   -35.242    -0.000     (0)  
N(5)          0.000e+00
   NO3-            0.000e+00   0.000e+00   -42.078   -42.078    -0.000     28.99
O(0)          0.000e+00
   O2              0.000e+00   0.000e+00   -42.612   -42.612     0.000     35.00

------------------------------Saturation indices-------------------------------

	Phase               SI   log IAP   log K(298 K, 801 atm)

	H2(g)           -22.07    -25.17   -3.10  H2
	H2O(g)           -1.26     -0.00    1.25  H2O
	N2(g)             1.94     -0.57   -2.51  N2	 Pressure 801.1 atm, phi 1.329.
	NH3(g)          -28.18    -26.05    2.13  NH3
	O2(g)           -39.22    -42.61   -3.39  O2


------------------
End of simulation.
------------------

-------------------------------------
Reading input data for simulation 43.
-------------------------------------

	END
------------------
End of simulation.
------------------

-------------------------------------
Reading input data for simulation 44.
-------------------------------------

-----------
End of run.
-----------

