   Input file: N2_ideal
  Output file: N2_ideal.out
Database file: ../database/phreeqc.dat

------------------
Reading data base.
------------------

	SOLUTION_MASTER_SPECIES
	SOLUTION_SPECIES
	PHASES
	EXCHANGE_MASTER_SPECIES
	EXCHANGE_SPECIES
	SURFACE_MASTER_SPECIES
	SURFACE_SPECIES
	RATES
	END
------------------------------------
Reading input data for simulation 1.
------------------------------------

	DATABASE ../database/phreeqc.dat
	PHASES
	N2(g)
	N2 = N2
	log_k		 -3.1864
	analytical_expression -58.453 1.81800E-03  3199  17.909 -27460
	t_c 150
	 p_c 3000 # these parameters give near ideal behavior
	SOLUTION 1
	 temp 150 # the ideal one (below) does not converge with temp 200
	INCREMENTAL_REACTIONS
	GAS_PHASE 1
	 fixed_volume
	 N2(g) 0
	REACTION 1
	 N2 1
	 27 in 20
	 USER_GRAPH
	 -headings Vm N2-ideal/critical
	 -axis_titles "Gas Molar Volume / (L/mole)" "Gas Pressure / atm"
	 10 graph_x gas_vm
	 20 graph_y gas_p
	END
-------------------------------------------
Beginning of initial solution calculations.
-------------------------------------------

Initial solution 1.	

-----------------------------Solution composition------------------------------

	Elements           Molality       Moles

	Pure water     

----------------------------Description of solution----------------------------

                                       pH  =   7.000    
                                       pe  =   4.000    
       Specific Conductance (uS/cm, 150 oC) = 23
                          Density (g/cm3)  =   0.91701
                        Activity of water  =   1.000
                           Ionic strength  =   1.201e-05
                       Mass of water (kg)  =   1.000e+00
                 Total alkalinity (eq/kg)  =   2.382e-05
                    Total carbon (mol/kg)  =   0.000e+00
                       Total CO2 (mol/kg)  =   0.000e+00
                      Temperature (deg C)  = 150.00
                  Electrical balance (eq)  =  -2.382e-05
 Percent error, 100*(Cat-|An|)/(Cat+|An|)  = -99.16
                               Iterations  =   3
                                  Total H  = 1.110125e+02
                                  Total O  = 5.550624e+01

----------------------------Distribution of species----------------------------

                                               Log       Log       Log    mole V
   Species          Molality    Activity  Molality  Activity     Gamma   cm3/mol

   OH-             2.392e-05   2.379e-05    -4.621    -4.624    -0.002    -13.55
   H+              1.005e-07   1.000e-07    -6.998    -7.000    -0.002      0.00
   H2O             5.551e+01   1.000e+00     1.744    -0.000     0.000     19.65
H(0)          5.891e-26
   H2              2.945e-26   2.945e-26   -25.531   -25.531     0.000     28.56
O(0)          2.550e-13
   O2              1.275e-13   1.275e-13   -12.894   -12.894     0.000     35.93

------------------------------Saturation indices-------------------------------

	Phase               SI   log IAP   log K(423 K,   1 atm)

	H2(g)           -22.55    -25.53   -2.98  H2
	H2O(g)            0.66     -0.00   -0.66  H2O
	O2(g)            -9.85    -12.89   -3.04  O2


-----------------------------------------
Beginning of batch-reaction calculations.
-----------------------------------------

Reaction step 1.

Using solution 1.	
Using gas phase 1.	
Using reaction 1.	

Reaction 1.	

	  1.350e+00 moles of the following reaction have been added:

	                 Relative
	Reactant            moles

	N2                   1.00000

	                 Relative
	Element             moles
	N                    2.00000

-----------------------------------Gas phase-----------------------------------

Total pressure: 45.99      atmospheres          (Peng-Robinson calculation)
    Gas volume:   1.00e+00 liters
  Molar volume:   7.55e-01 liters/mole
   P * Vm / RT:  0.99993  (Compressibility Factor Z) 

                                                        Moles in gas
                                            ----------------------------------
Component         log P           P    phi     Initial       Final       Delta

N2(g)              1.66   4.599e+01  1.000   0.000e+00   1.324e+00   1.324e+00

-----------------------------Solution composition------------------------------

	Elements           Molality       Moles

	N                 5.104e-02   5.104e-02

----------------------------Description of solution----------------------------

                                       pH  =   6.982      Charge balance
                                       pe  =   3.123      Adjusted to redox equilibrium
       Specific Conductance (uS/cm, 150 oC) = 23
                          Density (g/cm3)  =   0.91704
                        Activity of water  =   1.000
                           Ionic strength  =   1.202e-05
                       Mass of water (kg)  =   1.000e+00
                 Total alkalinity (eq/kg)  =   2.382e-05
                    Total carbon (mol/kg)  =   0.000e+00
                       Total CO2 (mol/kg)  =   0.000e+00
                      Temperature (deg C)  = 150.00
                           Pressure (atm)  = 45.99
                  Electrical balance (eq)  =  -2.382e-05
 Percent error, 100*(Cat-|An|)/(Cat+|An|)  = -99.13
                               Iterations  =  38
                                  Total H  = 1.110125e+02
                                  Total O  = 5.550624e+01

----------------------------Distribution of species----------------------------

                                               Log       Log       Log    mole V
   Species          Molality    Activity  Molality  Activity     Gamma   cm3/mol

   OH-             2.393e-05   2.380e-05    -4.621    -4.624    -0.002    -13.07
   H+              1.048e-07   1.043e-07    -6.980    -6.982    -0.002      0.00
   H2O             5.551e+01   9.996e-01     1.744    -0.000     0.000     19.65
H(0)          3.499e-24
   H2              1.749e-24   1.749e-24   -23.757   -23.757     0.000     28.54
N(-3)         1.865e-29
   NH3             1.322e-29   1.322e-29   -28.879   -28.879     0.000     25.23
   NH4+            5.426e-30   5.396e-30   -29.266   -29.268    -0.002     16.55
N(0)          5.104e-02
   N2              2.552e-02   2.552e-02    -1.593    -1.593     0.000     29.29
N(3)          7.378e-15
   NO2-            7.378e-15   7.338e-15   -14.132   -14.134    -0.002     21.27
N(5)          9.739e-14
   NO3-            9.739e-14   9.686e-14   -13.011   -13.014    -0.002     31.40
O(0)          6.739e-17
   O2              3.370e-17   3.370e-17   -16.472   -16.472     0.000     35.72

------------------------------Saturation indices-------------------------------

	Phase               SI   log IAP   log K(423 K,  46 atm)

	H2(g)           -20.78    -23.76   -2.98  H2
	H2O(g)            0.67     -0.00   -0.67  H2O
	N2(g)             1.66     -1.59   -3.26  N2	 Pressure  46.0 atm, phi 1.000.
	NH3(g)          -28.96    -28.88    0.08  NH3
	O2(g)           -13.41    -16.47   -3.06  O2


Reaction step 2.

Using solution 1.	
Using gas phase 1.	
Using reaction 1.	

Reaction 1.	

	  1.350e+00 moles of the following reaction have been added:

	                 Relative
	Reactant            moles

	N2                   1.00000

	                 Relative
	Element             moles
	N                    2.00000

-----------------------------------Gas phase-----------------------------------

Total pressure: 92.04      atmospheres          (Peng-Robinson calculation)
    Gas volume:   1.00e+00 liters
  Molar volume:   3.77e-01 liters/mole
   P * Vm / RT:  0.99987  (Compressibility Factor Z) 

                                                        Moles in gas
                                            ----------------------------------
Component         log P           P    phi     Initial       Final       Delta

N2(g)              1.96   9.204e+01  1.000   1.324e+00   2.651e+00   1.326e+00

-----------------------------Solution composition------------------------------

	Elements           Molality       Moles

	N                 9.826e-02   9.826e-02

----------------------------Description of solution----------------------------

                                       pH  =   6.964      Charge balance
                                       pe  =   3.109      Adjusted to redox equilibrium
       Specific Conductance (uS/cm, 150 oC) = 23
                          Density (g/cm3)  =   0.92202
                        Activity of water  =   0.999
                           Ionic strength  =   1.202e-05
                       Mass of water (kg)  =   1.000e+00
                 Total alkalinity (eq/kg)  =   2.382e-05
                    Total carbon (mol/kg)  =   0.000e+00
                       Total CO2 (mol/kg)  =   0.000e+00
                      Temperature (deg C)  = 150.00
                           Pressure (atm)  = 92.04
                  Electrical balance (eq)  =  -2.382e-05
 Percent error, 100*(Cat-|An|)/(Cat+|An|)  = -99.09
                               Iterations  =  23
                                  Total H  = 1.110125e+02
                                  Total O  = 5.550624e+01

----------------------------Distribution of species----------------------------

                                               Log       Log       Log    mole V
   Species          Molality    Activity  Molality  Activity     Gamma   cm3/mol

   OH-             2.393e-05   2.380e-05    -4.621    -4.623    -0.002    -12.60
   H+              1.092e-07   1.087e-07    -6.962    -6.964    -0.002      0.00
   H2O             5.551e+01   9.992e-01     1.744    -0.000     0.000     19.54
H(0)          3.905e-24
   H2              1.952e-24   1.952e-24   -23.709   -23.709     0.000     28.52
N(-3)         3.234e-29
   NH3             2.258e-29   2.258e-29   -28.646   -28.646     0.000     25.19
   NH4+            9.763e-30   9.710e-30   -29.010   -29.013    -0.002     16.62
N(0)          9.826e-02
   N2              4.913e-02   4.913e-02    -1.309    -1.309     0.000     29.29
N(3)          8.207e-15
   NO2-            8.207e-15   8.162e-15   -14.086   -14.088    -0.002     21.38
N(5)          9.463e-14
   NO3-            9.463e-14   9.412e-14   -13.024   -13.026    -0.002     31.28
O(0)          5.036e-17
   O2              2.518e-17   2.518e-17   -16.599   -16.599     0.000     35.51

------------------------------Saturation indices-------------------------------

	Phase               SI   log IAP   log K(423 K,  92 atm)

	H2(g)           -20.73    -23.71   -2.98  H2
	H2O(g)            0.68     -0.00   -0.68  H2O
	N2(g)             1.96     -1.31   -3.27  N2	 Pressure  92.0 atm, phi 1.000.
	NH3(g)          -28.72    -28.65    0.07  NH3
	O2(g)           -13.51    -16.60   -3.08  O2


Reaction step 3.

Using solution 1.	
Using gas phase 1.	
Using reaction 1.	

Reaction 1.	

	  1.350e+00 moles of the following reaction have been added:

	                 Relative
	Reactant            moles

	N2                   1.00000

	                 Relative
	Element             moles
	N                    2.00000

-----------------------------------Gas phase-----------------------------------

Total pressure: 138.14      atmospheres          (Peng-Robinson calculation)
    Gas volume:   1.00e+00 liters
  Molar volume:   2.51e-01 liters/mole
   P * Vm / RT:  0.99981  (Compressibility Factor Z) 

                                                        Moles in gas
                                            ----------------------------------
Component         log P           P    phi     Initial       Final       Delta

N2(g)              2.14   1.381e+02  1.000   2.651e+00   3.979e+00   1.328e+00

-----------------------------Solution composition------------------------------

	Elements           Molality       Moles

	N                 1.418e-01   1.418e-01

----------------------------Description of solution----------------------------

                                       pH  =   6.947      Charge balance
                                       pe  =   3.109      Adjusted to redox equilibrium
       Specific Conductance (uS/cm, 150 oC) = 23
                          Density (g/cm3)  =   0.92458
                        Activity of water  =   0.999
                           Ionic strength  =   1.202e-05
                       Mass of water (kg)  =   1.000e+00
                 Total alkalinity (eq/kg)  =   2.382e-05
                    Total carbon (mol/kg)  =   0.000e+00
                       Total CO2 (mol/kg)  =   0.000e+00
                      Temperature (deg C)  = 150.00
                           Pressure (atm)  = 138.14
                  Electrical balance (eq)  =  -2.382e-05
 Percent error, 100*(Cat-|An|)/(Cat+|An|)  = -99.05
                               Iterations  =  21
                                  Total H  = 1.110125e+02
                                  Total O  = 5.550624e+01

----------------------------Distribution of species----------------------------

                                               Log       Log       Log    mole V
   Species          Molality    Activity  Molality  Activity     Gamma   cm3/mol

   OH-             2.393e-05   2.381e-05    -4.621    -4.623    -0.002    -12.15
   H+              1.137e-07   1.131e-07    -6.944    -6.947    -0.002      0.00
   H2O             5.551e+01   9.988e-01     1.744    -0.001     0.000     19.49
H(0)          4.082e-24
   H2              2.041e-24   2.041e-24   -23.690   -23.690     0.000     28.50
N(-3)         4.404e-29
   NH3             3.027e-29   3.027e-29   -28.519   -28.519     0.000     25.16
   NH4+            1.377e-29   1.370e-29   -28.861   -28.863    -0.002     16.69
N(0)          1.418e-01
   N2              7.092e-02   7.092e-02    -1.149    -1.149     0.000     29.29
N(3)          8.727e-15
   NO2-            8.727e-15   8.680e-15   -14.059   -14.061    -0.002     21.48
N(5)          9.392e-14
   NO3-            9.392e-14   9.341e-14   -13.027   -13.030    -0.002     31.16
O(0)          4.291e-17
   O2              2.146e-17   2.146e-17   -16.668   -16.668     0.000     35.31

------------------------------Saturation indices-------------------------------

	Phase               SI   log IAP   log K(423 K, 138 atm)

	H2(g)           -20.71    -23.69   -2.98  H2
	H2O(g)            0.69     -0.00   -0.69  H2O
	N2(g)             2.14     -1.15   -3.29  N2	 Pressure 138.1 atm, phi 1.000.
	NH3(g)          -28.58    -28.52    0.06  NH3
	O2(g)           -13.56    -16.67   -3.11  O2


Reaction step 4.

Using solution 1.	
Using gas phase 1.	
Using reaction 1.	

Reaction 1.	

	  1.350e+00 moles of the following reaction have been added:

	                 Relative
	Reactant            moles

	N2                   1.00000

	                 Relative
	Element             moles
	N                    2.00000

-----------------------------------Gas phase-----------------------------------

Total pressure: 184.30      atmospheres          (Peng-Robinson calculation)
    Gas volume:   1.00e+00 liters
  Molar volume:   1.88e-01 liters/mole
   P * Vm / RT:  0.99974  (Compressibility Factor Z) 

                                                        Moles in gas
                                            ----------------------------------
Component         log P           P    phi     Initial       Final       Delta

N2(g)              2.27   1.843e+02  1.000   3.979e+00   5.309e+00   1.330e+00

-----------------------------Solution composition------------------------------

	Elements           Molality       Moles

	N                 1.820e-01   1.820e-01

----------------------------Description of solution----------------------------

                                       pH  =   6.930      Charge balance
                                       pe  =   3.113      Adjusted to redox equilibrium
       Specific Conductance (uS/cm, 150 oC) = 23
                          Density (g/cm3)  =   0.92710
                        Activity of water  =   0.998
                           Ionic strength  =   1.203e-05
                       Mass of water (kg)  =   1.000e+00
                 Total alkalinity (eq/kg)  =   2.382e-05
                    Total carbon (mol/kg)  =   0.000e+00
                       Total CO2 (mol/kg)  =   0.000e+00
                      Temperature (deg C)  = 150.00
                           Pressure (atm)  = 184.30
                  Electrical balance (eq)  =  -2.382e-05
 Percent error, 100*(Cat-|An|)/(Cat+|An|)  = -99.02
                               Iterations  =  25
                                  Total H  = 1.110125e+02
                                  Total O  = 5.550624e+01

----------------------------Distribution of species----------------------------

                                               Log       Log       Log    mole V
   Species          Molality    Activity  Molality  Activity     Gamma   cm3/mol

   OH-             2.394e-05   2.381e-05    -4.621    -4.623    -0.002    -11.71
   H+              1.182e-07   1.176e-07    -6.927    -6.930    -0.002      0.00
   H2O             5.551e+01   9.985e-01     1.744    -0.001     0.000     19.43
H(0)          4.167e-24
   H2              2.084e-24   2.084e-24   -23.681   -23.681     0.000     28.48
N(-3)         5.455e-29
   NH3             3.690e-29   3.690e-29   -28.433   -28.433     0.000     25.13
   NH4+            1.765e-29   1.755e-29   -28.753   -28.756    -0.002     16.76
N(0)          1.820e-01
   N2              9.100e-02   9.100e-02    -1.041    -1.041     0.000     29.29
N(3)          9.076e-15
   NO2-            9.076e-15   9.027e-15   -14.042   -14.044    -0.002     21.58
N(5)          9.340e-14
   NO3-            9.340e-14   9.289e-14   -13.030   -13.032    -0.002     31.04
O(0)          3.837e-17
   O2              1.918e-17   1.918e-17   -16.717   -16.717     0.000     35.12

------------------------------Saturation indices-------------------------------

	Phase               SI   log IAP   log K(423 K, 184 atm)

	H2(g)           -20.70    -23.68   -2.98  H2
	H2O(g)            0.70     -0.00   -0.70  H2O
	N2(g)             2.27     -1.04   -3.31  N2	 Pressure 184.3 atm, phi 1.000.
	NH3(g)          -28.49    -28.43    0.06  NH3
	O2(g)           -13.59    -16.72   -3.13  O2


Reaction step 5.

Using solution 1.	
Using gas phase 1.	
Using reaction 1.	

Reaction 1.	

	  1.350e+00 moles of the following reaction have been added:

	                 Relative
	Reactant            moles

	N2                   1.00000

	                 Relative
	Element             moles
	N                    2.00000

-----------------------------------Gas phase-----------------------------------

Total pressure: 230.51      atmospheres          (Peng-Robinson calculation)
    Gas volume:   1.00e+00 liters
  Molar volume:   1.51e-01 liters/mole
   P * Vm / RT:  0.99968  (Compressibility Factor Z) 

                                                        Moles in gas
                                            ----------------------------------
Component         log P           P    phi     Initial       Final       Delta

N2(g)              2.36   2.305e+02  1.000   5.309e+00   6.641e+00   1.332e+00

-----------------------------Solution composition------------------------------

	Elements           Molality       Moles

	N                 2.189e-01   2.189e-01

----------------------------Description of solution----------------------------

                                       pH  =   6.913      Charge balance
                                       pe  =   3.117      Adjusted to redox equilibrium
       Specific Conductance (uS/cm, 150 oC) = 23
                          Density (g/cm3)  =   0.92957
                        Activity of water  =   0.998
                           Ionic strength  =   1.203e-05
                       Mass of water (kg)  =   1.000e+00
                 Total alkalinity (eq/kg)  =   2.382e-05
                    Total carbon (mol/kg)  =   0.000e+00
                       Total CO2 (mol/kg)  =   0.000e+00
                      Temperature (deg C)  = 150.00
                           Pressure (atm)  = 230.51
                  Electrical balance (eq)  =  -2.382e-05
 Percent error, 100*(Cat-|An|)/(Cat+|An|)  = -98.98
                               Iterations  =  24
                                  Total H  = 1.110125e+02
                                  Total O  = 5.550624e+01

----------------------------Distribution of species----------------------------

                                               Log       Log       Log    mole V
   Species          Molality    Activity  Molality  Activity     Gamma   cm3/mol

   OH-             2.394e-05   2.382e-05    -4.621    -4.623    -0.002    -11.29
   H+              1.228e-07   1.221e-07    -6.911    -6.913    -0.002      0.00
   H2O             5.551e+01   9.981e-01     1.744    -0.001     0.000     19.38
H(0)          4.241e-24
   H2              2.121e-24   2.121e-24   -23.674   -23.674     0.000     28.46
N(-3)         6.515e-29
   NH3             4.338e-29   4.338e-29   -28.363   -28.363     0.000     25.09
   NH4+            2.177e-29   2.165e-29   -28.662   -28.664    -0.002     16.82
N(0)          2.189e-01
   N2              1.095e-01   1.095e-01    -0.961    -0.961     0.000     29.29
N(3)          9.185e-15
   NO2-            9.185e-15   9.136e-15   -14.037   -14.039    -0.002     21.68
N(5)          9.068e-14
   NO3-            9.068e-14   9.020e-14   -13.042   -13.045    -0.002     30.93
O(0)          3.451e-17
   O2              1.726e-17   1.726e-17   -16.763   -16.763     0.000     34.93

------------------------------Saturation indices-------------------------------

	Phase               SI   log IAP   log K(423 K, 231 atm)

	H2(g)           -20.69    -23.67   -2.98  H2
	H2O(g)            0.71     -0.00   -0.71  H2O
	N2(g)             2.36     -0.96   -3.32  N2	 Pressure 230.5 atm, phi 1.000.
	NH3(g)          -28.41    -28.36    0.05  NH3
	O2(g)           -13.61    -16.76   -3.15  O2


Reaction step 6.

Using solution 1.	
Using gas phase 1.	
Using reaction 1.	

Reaction 1.	

	  1.350e+00 moles of the following reaction have been added:

	                 Relative
	Reactant            moles

	N2                   1.00000

	                 Relative
	Element             moles
	N                    2.00000

-----------------------------------Gas phase-----------------------------------

Total pressure: 276.77      atmospheres          (Peng-Robinson calculation)
    Gas volume:   1.00e+00 liters
  Molar volume:   1.25e-01 liters/mole
   P * Vm / RT:  0.99962  (Compressibility Factor Z) 

                                                        Moles in gas
                                            ----------------------------------
Component         log P           P    phi     Initial       Final       Delta

N2(g)              2.44   2.768e+02  1.000   6.641e+00   7.974e+00   1.333e+00

-----------------------------Solution composition------------------------------

	Elements           Molality       Moles

	N                 2.528e-01   2.528e-01

----------------------------Description of solution----------------------------

                                       pH  =   6.897      Charge balance
                                       pe  =   3.126      Adjusted to redox equilibrium
       Specific Conductance (uS/cm, 150 oC) = 23
                          Density (g/cm3)  =   0.93200
                        Activity of water  =   0.998
                           Ionic strength  =   1.204e-05
                       Mass of water (kg)  =   1.000e+00
                 Total alkalinity (eq/kg)  =   2.382e-05
                    Total carbon (mol/kg)  =   0.000e+00
                       Total CO2 (mol/kg)  =   0.000e+00
                      Temperature (deg C)  = 150.00
                           Pressure (atm)  = 276.77
                  Electrical balance (eq)  =  -2.382e-05
 Percent error, 100*(Cat-|An|)/(Cat+|An|)  = -98.94
                               Iterations  =  28
                                  Total H  = 1.110125e+02
                                  Total O  = 5.550624e+01

----------------------------Distribution of species----------------------------

                                               Log       Log       Log    mole V
   Species          Molality    Activity  Molality  Activity     Gamma   cm3/mol

   OH-             2.395e-05   2.382e-05    -4.621    -4.623    -0.002    -10.88
   H+              1.274e-07   1.267e-07    -6.895    -6.897    -0.002      0.00
   H2O             5.551e+01   9.979e-01     1.744    -0.001     0.000     19.33
H(0)          4.225e-24
   H2              2.113e-24   2.113e-24   -23.675   -23.675     0.000     28.44
N(-3)         7.384e-29
   NH3             4.839e-29   4.839e-29   -28.315   -28.315     0.000     25.06
   NH4+            2.545e-29   2.532e-29   -28.594   -28.597    -0.002     16.88
N(0)          2.528e-01
   N2              1.264e-01   1.264e-01    -0.898    -0.898     0.000     29.29
N(3)          9.411e-15
   NO2-            9.411e-15   9.361e-15   -14.026   -14.029    -0.002     21.77
N(5)          9.111e-14
   NO3-            9.111e-14   9.062e-14   -13.040   -13.043    -0.002     30.83
O(0)          3.241e-17
   O2              1.620e-17   1.620e-17   -16.790   -16.790     0.000     34.75

------------------------------Saturation indices-------------------------------

	Phase               SI   log IAP   log K(423 K, 277 atm)

	H2(g)           -20.70    -23.68   -2.98  H2
	H2O(g)            0.72     -0.00   -0.73  H2O
	N2(g)             2.44     -0.90   -3.34  N2	 Pressure 276.8 atm, phi 1.000.
	NH3(g)          -28.35    -28.32    0.04  NH3
	O2(g)           -13.62    -16.79   -3.17  O2


Reaction step 7.

Using solution 1.	
Using gas phase 1.	
Using reaction 1.	

Reaction 1.	

	  1.350e+00 moles of the following reaction have been added:

	                 Relative
	Reactant            moles

	N2                   1.00000

	                 Relative
	Element             moles
	N                    2.00000

-----------------------------------Gas phase-----------------------------------

Total pressure: 323.07      atmospheres          (Peng-Robinson calculation)
    Gas volume:   1.00e+00 liters
  Molar volume:   1.07e-01 liters/mole
   P * Vm / RT:  0.99956  (Compressibility Factor Z) 

                                                        Moles in gas
                                            ----------------------------------
Component         log P           P    phi     Initial       Final       Delta

N2(g)              2.51   3.231e+02  1.000   7.974e+00   9.308e+00   1.335e+00

-----------------------------Solution composition------------------------------

	Elements           Molality       Moles

	N                 2.837e-01   2.837e-01

----------------------------Description of solution----------------------------

                                       pH  =   6.882      Charge balance
                                       pe  =   3.134      Adjusted to redox equilibrium
       Specific Conductance (uS/cm, 150 oC) = 23
                          Density (g/cm3)  =   0.93439
                        Activity of water  =   0.998
                           Ionic strength  =   1.204e-05
                       Mass of water (kg)  =   1.000e+00
                 Total alkalinity (eq/kg)  =   2.382e-05
                    Total carbon (mol/kg)  =   0.000e+00
                       Total CO2 (mol/kg)  =   0.000e+00
                      Temperature (deg C)  = 150.00
                           Pressure (atm)  = 323.07
                  Electrical balance (eq)  =  -2.382e-05
 Percent error, 100*(Cat-|An|)/(Cat+|An|)  = -98.90
                               Iterations  =  28
                                  Total H  = 1.110125e+02
                                  Total O  = 5.550624e+01

----------------------------Distribution of species----------------------------

                                               Log       Log       Log    mole V
   Species          Molality    Activity  Molality  Activity     Gamma   cm3/mol

   OH-             2.395e-05   2.383e-05    -4.621    -4.623    -0.002    -10.49
   H+              1.320e-07   1.313e-07    -6.879    -6.882    -0.002      0.00
   H2O             5.551e+01   9.976e-01     1.744    -0.001     0.000     19.28
H(0)          4.216e-24
   H2              2.108e-24   2.108e-24   -23.676   -23.676     0.000     28.42
N(-3)         8.272e-29
   NH3             5.335e-29   5.335e-29   -28.273   -28.273     0.000     25.03
   NH4+            2.938e-29   2.922e-29   -28.532   -28.534    -0.002     16.94
N(0)          2.837e-01
   N2              1.419e-01   1.419e-01    -0.848    -0.848     0.000     29.29
N(3)          9.491e-15
   NO2-            9.491e-15   9.440e-15   -14.023   -14.025    -0.002     21.86
N(5)          8.999e-14
   NO3-            8.999e-14   8.951e-14   -13.046   -13.048    -0.002     30.72
O(0)          3.035e-17
   O2              1.517e-17   1.517e-17   -16.819   -16.819     0.000     34.57

------------------------------Saturation indices-------------------------------

	Phase               SI   log IAP   log K(423 K, 323 atm)

	H2(g)           -20.70    -23.68   -2.98  H2
	H2O(g)            0.74     -0.00   -0.74  H2O
	N2(g)             2.51     -0.85   -3.36  N2	 Pressure 323.1 atm, phi 1.000.
	NH3(g)          -28.30    -28.27    0.03  NH3
	O2(g)           -13.62    -16.82   -3.19  O2


Reaction step 8.

Using solution 1.	
Using gas phase 1.	
Using reaction 1.	

Reaction 1.	

	  1.350e+00 moles of the following reaction have been added:

	                 Relative
	Reactant            moles

	N2                   1.00000

	                 Relative
	Element             moles
	N                    2.00000

-----------------------------------Gas phase-----------------------------------

Total pressure: 369.41      atmospheres          (Peng-Robinson calculation)
    Gas volume:   1.00e+00 liters
  Molar volume:   9.39e-02 liters/mole
   P * Vm / RT:  0.99950  (Compressibility Factor Z) 

                                                        Moles in gas
                                            ----------------------------------
Component         log P           P    phi     Initial       Final       Delta

N2(g)              2.57   3.694e+02  0.999   9.308e+00   1.064e+01   1.336e+00

-----------------------------Solution composition------------------------------

	Elements           Molality       Moles

	N                 3.120e-01   3.120e-01

----------------------------Description of solution----------------------------

                                       pH  =   6.867      Charge balance
                                       pe  =   3.145      Adjusted to redox equilibrium
       Specific Conductance (uS/cm, 150 oC) = 23
                          Density (g/cm3)  =   0.93674
                        Activity of water  =   0.997
                           Ionic strength  =   1.205e-05
                       Mass of water (kg)  =   1.000e+00
                 Total alkalinity (eq/kg)  =   2.382e-05
                    Total carbon (mol/kg)  =   0.000e+00
                       Total CO2 (mol/kg)  =   0.000e+00
                      Temperature (deg C)  = 150.00
                           Pressure (atm)  = 369.41
                  Electrical balance (eq)  =  -2.382e-05
 Percent error, 100*(Cat-|An|)/(Cat+|An|)  = -98.87
                               Iterations  =  28
                                  Total H  = 1.110125e+02
                                  Total O  = 5.550624e+01

----------------------------Distribution of species----------------------------

                                               Log       Log       Log    mole V
   Species          Molality    Activity  Molality  Activity     Gamma   cm3/mol

   OH-             2.396e-05   2.383e-05    -4.621    -4.623    -0.002    -10.12
   H+              1.367e-07   1.359e-07    -6.864    -6.867    -0.002      0.00
   H2O             5.551e+01   9.973e-01     1.744    -0.001     0.000     19.23
H(0)          4.131e-24
   H2              2.066e-24   2.066e-24   -23.685   -23.685     0.000     28.40
N(-3)         8.926e-29
   NH3             5.664e-29   5.664e-29   -28.247   -28.247     0.000     25.00
   NH4+            3.261e-29   3.244e-29   -28.487   -28.489    -0.002     16.99
N(0)          3.120e-01
   N2              1.560e-01   1.560e-01    -0.807    -0.807     0.000     29.29
N(3)          9.741e-15
   NO2-            9.741e-15   9.690e-15   -14.011   -14.014    -0.002     21.95
N(5)          9.216e-14
   NO3-            9.216e-14   9.167e-14   -13.035   -13.038    -0.002     30.62
O(0)          2.947e-17
   O2              1.474e-17   1.474e-17   -16.832   -16.832     0.000     34.41

------------------------------Saturation indices-------------------------------

	Phase               SI   log IAP   log K(423 K, 369 atm)

	H2(g)           -20.71    -23.68   -2.98  H2
	H2O(g)            0.75     -0.00   -0.75  H2O
	N2(g)             2.57     -0.81   -3.37  N2	 Pressure 369.4 atm, phi 0.999.
	NH3(g)          -28.27    -28.25    0.02  NH3
	O2(g)           -13.61    -16.83   -3.22  O2


Reaction step 9.

Using solution 1.	
Using gas phase 1.	
Using reaction 1.	

Reaction 1.	

	  1.350e+00 moles of the following reaction have been added:

	                 Relative
	Reactant            moles

	N2                   1.00000

	                 Relative
	Element             moles
	N                    2.00000

-----------------------------------Gas phase-----------------------------------

Total pressure: 415.80      atmospheres          (Peng-Robinson calculation)
    Gas volume:   1.00e+00 liters
  Molar volume:   8.35e-02 liters/mole
   P * Vm / RT:  0.99945  (Compressibility Factor Z) 

                                                        Moles in gas
                                            ----------------------------------
Component         log P           P    phi     Initial       Final       Delta

N2(g)              2.62   4.158e+02  0.999   1.064e+01   1.198e+01   1.337e+00

-----------------------------Solution composition------------------------------

	Elements           Molality       Moles

	N                 3.377e-01   3.377e-01

----------------------------Description of solution----------------------------

                                       pH  =   6.852      Charge balance
                                       pe  =   3.158      Adjusted to redox equilibrium
       Specific Conductance (uS/cm, 150 oC) = 23
                          Density (g/cm3)  =   0.93905
                        Activity of water  =   0.997
                           Ionic strength  =   1.205e-05
                       Mass of water (kg)  =   1.000e+00
                 Total alkalinity (eq/kg)  =   2.382e-05
                    Total carbon (mol/kg)  =   0.000e+00
                       Total CO2 (mol/kg)  =   0.000e+00
                      Temperature (deg C)  = 150.00
                           Pressure (atm)  = 415.80
                  Electrical balance (eq)  =  -2.382e-05
 Percent error, 100*(Cat-|An|)/(Cat+|An|)  = -98.83
                               Iterations  =  32
                                  Total H  = 1.110125e+02
                                  Total O  = 5.550624e+01

----------------------------Distribution of species----------------------------

                                               Log       Log       Log    mole V
   Species          Molality    Activity  Molality  Activity     Gamma   cm3/mol

   OH-             2.396e-05   2.384e-05    -4.620    -4.623    -0.002     -9.75
   H+              1.414e-07   1.406e-07    -6.850    -6.852    -0.002      0.00
   H2O             5.551e+01   9.971e-01     1.744    -0.001     0.000     19.19
H(0)          4.014e-24
   H2              2.007e-24   2.007e-24   -23.697   -23.697     0.000     28.39
N(-3)         9.437e-29
   NH3             5.893e-29   5.893e-29   -28.230   -28.230     0.000     24.97
   NH4+            3.544e-29   3.526e-29   -28.450   -28.453    -0.002     17.05
N(0)          3.377e-01
   N2              1.688e-01   1.688e-01    -0.773    -0.773     0.000     29.29
N(3)          1.005e-14
   NO2-            1.005e-14   9.997e-15   -13.998   -14.000    -0.002     22.03
N(5)          9.569e-14
   NO3-            9.569e-14   9.519e-14   -13.019   -13.021    -0.002     30.52
O(0)          2.912e-17
   O2              1.456e-17   1.456e-17   -16.837   -16.837     0.000     34.24

------------------------------Saturation indices-------------------------------

	Phase               SI   log IAP   log K(423 K, 416 atm)

	H2(g)           -20.72    -23.70   -2.98  H2
	H2O(g)            0.76     -0.00   -0.76  H2O
	N2(g)             2.62     -0.77   -3.39  N2	 Pressure 415.8 atm, phi 0.999.
	NH3(g)          -28.24    -28.23    0.01  NH3
	O2(g)           -13.60    -16.84   -3.24  O2


Reaction step 10.

Using solution 1.	
Using gas phase 1.	
Using reaction 1.	

Reaction 1.	

	  1.350e+00 moles of the following reaction have been added:

	                 Relative
	Reactant            moles

	N2                   1.00000

	                 Relative
	Element             moles
	N                    2.00000

-----------------------------------Gas phase-----------------------------------

Total pressure: 462.22      atmospheres          (Peng-Robinson calculation)
    Gas volume:   1.00e+00 liters
  Molar volume:   7.51e-02 liters/mole
   P * Vm / RT:  0.99939  (Compressibility Factor Z) 

                                                        Moles in gas
                                            ----------------------------------
Component         log P           P    phi     Initial       Final       Delta

N2(g)              2.66   4.622e+02  0.999   1.198e+01   1.332e+01   1.338e+00

-----------------------------Solution composition------------------------------

	Elements           Molality       Moles

	N                 3.609e-01   3.609e-01

----------------------------Description of solution----------------------------

                                       pH  =   6.838      Charge balance
                                       pe  =   3.166      Adjusted to redox equilibrium
       Specific Conductance (uS/cm, 150 oC) = 23
                          Density (g/cm3)  =   0.94133
                        Activity of water  =   0.997
                           Ionic strength  =   1.206e-05
                       Mass of water (kg)  =   1.000e+00
                 Total alkalinity (eq/kg)  =   2.382e-05
                    Total carbon (mol/kg)  =   0.000e+00
                       Total CO2 (mol/kg)  =   0.000e+00
                      Temperature (deg C)  = 150.00
                           Pressure (atm)  = 462.22
                  Electrical balance (eq)  =  -2.382e-05
 Percent error, 100*(Cat-|An|)/(Cat+|An|)  = -98.79
                               Iterations  =  33
                                  Total H  = 1.110125e+02
                                  Total O  = 5.550624e+01

----------------------------Distribution of species----------------------------

                                               Log       Log       Log    mole V
   Species          Molality    Activity  Molality  Activity     Gamma   cm3/mol

   OH-             2.397e-05   2.384e-05    -4.620    -4.623    -0.002     -9.40
   H+              1.461e-07   1.453e-07    -6.835    -6.838    -0.002      0.00
   H2O             5.551e+01   9.969e-01     1.744    -0.001     0.000     19.14
H(0)          3.970e-24
   H2              1.985e-24   1.985e-24   -23.702   -23.702     0.000     28.37
N(-3)         1.018e-28
   NH3             6.256e-29   6.256e-29   -28.204   -28.204     0.000     24.94
   NH4+            3.926e-29   3.905e-29   -28.406   -28.408    -0.002     17.10
N(0)          3.609e-01
   N2              1.805e-01   1.805e-01    -0.744    -0.744     0.000     29.29
N(3)          1.004e-14
   NO2-            1.004e-14   9.989e-15   -13.998   -14.000    -0.002     22.11
N(5)          9.458e-14
   NO3-            9.458e-14   9.408e-14   -13.024   -13.027    -0.002     30.43
O(0)          2.777e-17
   O2              1.389e-17   1.389e-17   -16.857   -16.857     0.000     34.08

------------------------------Saturation indices-------------------------------

	Phase               SI   log IAP   log K(423 K, 462 atm)

	H2(g)           -20.72    -23.70   -2.98  H2
	H2O(g)            0.77     -0.00   -0.77  H2O
	N2(g)             2.66     -0.74   -3.41  N2	 Pressure 462.2 atm, phi 0.999.
	NH3(g)          -28.21    -28.20    0.00  NH3
	O2(g)           -13.60    -16.86   -3.26  O2


Reaction step 11.

Using solution 1.	
Using gas phase 1.	
Using reaction 1.	

Reaction 1.	

	  1.350e+00 moles of the following reaction have been added:

	                 Relative
	Reactant            moles

	N2                   1.00000

	                 Relative
	Element             moles
	N                    2.00000

-----------------------------------Gas phase-----------------------------------

Total pressure: 508.68      atmospheres          (Peng-Robinson calculation)
    Gas volume:   1.00e+00 liters
  Molar volume:   6.82e-02 liters/mole
   P * Vm / RT:  0.99933  (Compressibility Factor Z) 

                                                        Moles in gas
                                            ----------------------------------
Component         log P           P    phi     Initial       Final       Delta

N2(g)              2.71   5.087e+02  0.999   1.332e+01   1.466e+01   1.340e+00

-----------------------------Solution composition------------------------------

	Elements           Molality       Moles

	N                 3.819e-01   3.819e-01

----------------------------Description of solution----------------------------

                                       pH  =   6.824      Charge balance
                                       pe  =   3.179      Adjusted to redox equilibrium
       Specific Conductance (uS/cm, 150 oC) = 23
                          Density (g/cm3)  =   0.94357
                        Activity of water  =   0.997
                           Ionic strength  =   1.206e-05
                       Mass of water (kg)  =   1.000e+00
                 Total alkalinity (eq/kg)  =   2.382e-05
                    Total carbon (mol/kg)  =   0.000e+00
                       Total CO2 (mol/kg)  =   0.000e+00
                      Temperature (deg C)  = 150.00
                           Pressure (atm)  = 508.68
                  Electrical balance (eq)  =  -2.382e-05
 Percent error, 100*(Cat-|An|)/(Cat+|An|)  = -98.75
                               Iterations  =  43
                                  Total H  = 1.110125e+02
                                  Total O  = 5.550624e+01

----------------------------Distribution of species----------------------------

                                               Log       Log       Log    mole V
   Species          Molality    Activity  Molality  Activity     Gamma   cm3/mol

   OH-             2.397e-05   2.385e-05    -4.620    -4.623    -0.002     -9.06
   H+              1.509e-07   1.501e-07    -6.821    -6.824    -0.002      0.00
   H2O             5.551e+01   9.968e-01     1.744    -0.001     0.000     19.09
H(0)          3.848e-24
   H2              1.924e-24   1.924e-24   -23.716   -23.716     0.000     28.35
N(-3)         1.061e-28
   NH3             6.413e-29   6.413e-29   -28.193   -28.193     0.000     24.92
   NH4+            4.195e-29   4.173e-29   -28.377   -28.380    -0.002     17.15
N(0)          3.819e-01
   N2              1.910e-01   1.910e-01    -0.719    -0.719     0.000     29.29
N(3)          1.029e-14
   NO2-            1.029e-14   1.024e-14   -13.988   -13.990    -0.002     22.18
N(5)          9.786e-14
   NO3-            9.786e-14   9.735e-14   -13.009   -13.012    -0.002     30.34
O(0)          2.758e-17
   O2              1.379e-17   1.379e-17   -16.860   -16.860     0.000     33.93

------------------------------Saturation indices-------------------------------

	Phase               SI   log IAP   log K(423 K, 509 atm)

	H2(g)           -20.74    -23.72   -2.98  H2
	H2O(g)            0.78     -0.00   -0.78  H2O
	N2(g)             2.71     -0.72   -3.43  N2	 Pressure 508.7 atm, phi 0.999.
	NH3(g)          -28.19    -28.19   -0.00  NH3
	O2(g)           -13.58    -16.86   -3.28  O2


Reaction step 12.

Using solution 1.	
Using gas phase 1.	
Using reaction 1.	

Reaction 1.	

	  1.350e+00 moles of the following reaction have been added:

	                 Relative
	Reactant            moles

	N2                   1.00000

	                 Relative
	Element             moles
	N                    2.00000

-----------------------------------Gas phase-----------------------------------

Total pressure: 555.16      atmospheres          (Peng-Robinson calculation)
    Gas volume:   1.00e+00 liters
  Molar volume:   6.25e-02 liters/mole
   P * Vm / RT:  0.99928  (Compressibility Factor Z) 

                                                        Moles in gas
                                            ----------------------------------
Component         log P           P    phi     Initial       Final       Delta

N2(g)              2.74   5.552e+02  0.999   1.466e+01   1.600e+01   1.341e+00

-----------------------------Solution composition------------------------------

	Elements           Molality       Moles

	N                 4.008e-01   4.008e-01

----------------------------Description of solution----------------------------

                                       pH  =   6.810      Charge balance
                                       pe  =   3.189      Adjusted to redox equilibrium
       Specific Conductance (uS/cm, 150 oC) = 23
                          Density (g/cm3)  =   0.94578
                        Activity of water  =   0.997
                           Ionic strength  =   1.207e-05
                       Mass of water (kg)  =   1.000e+00
                 Total alkalinity (eq/kg)  =   2.382e-05
                    Total carbon (mol/kg)  =   0.000e+00
                       Total CO2 (mol/kg)  =   0.000e+00
                      Temperature (deg C)  = 150.00
                           Pressure (atm)  = 555.16
                  Electrical balance (eq)  =  -2.382e-05
 Percent error, 100*(Cat-|An|)/(Cat+|An|)  = -98.71
                               Iterations  =  42
                                  Total H  = 1.110125e+02
                                  Total O  = 5.550624e+01

----------------------------Distribution of species----------------------------

                                               Log       Log       Log    mole V
   Species          Molality    Activity  Molality  Activity     Gamma   cm3/mol

   OH-             2.398e-05   2.385e-05    -4.620    -4.622    -0.002     -8.74
   H+              1.557e-07   1.549e-07    -6.808    -6.810    -0.002      0.00
   H2O             5.551e+01   9.966e-01     1.744    -0.001     0.000     19.05
H(0)          3.767e-24
   H2              1.884e-24   1.884e-24   -23.725   -23.725     0.000     28.34
N(-3)         1.117e-28
   NH3             6.645e-29   6.645e-29   -28.178   -28.178     0.000     24.89
   NH4+            4.527e-29   4.503e-29   -28.344   -28.346    -0.002     17.20
N(0)          4.008e-01
   N2              2.004e-01   2.004e-01    -0.698    -0.698     0.000     29.29
N(3)          1.035e-14
   NO2-            1.035e-14   1.030e-14   -13.985   -13.987    -0.002     22.25
N(5)          9.844e-14
   NO3-            9.844e-14   9.793e-14   -13.007   -13.009    -0.002     30.25
O(0)          2.685e-17
   O2              1.343e-17   1.343e-17   -16.872   -16.872     0.000     33.78

------------------------------Saturation indices-------------------------------

	Phase               SI   log IAP   log K(423 K, 555 atm)

	H2(g)           -20.75    -23.73   -2.98  H2
	H2O(g)            0.79     -0.00   -0.79  H2O
	N2(g)             2.74     -0.70   -3.44  N2	 Pressure 555.2 atm, phi 0.999.
	NH3(g)          -28.17    -28.18   -0.01  NH3
	O2(g)           -13.57    -16.87   -3.30  O2


Reaction step 13.

Using solution 1.	
Using gas phase 1.	
Using reaction 1.	

Reaction 1.	

	  1.350e+00 moles of the following reaction have been added:

	                 Relative
	Reactant            moles

	N2                   1.00000

	                 Relative
	Element             moles
	N                    2.00000

-----------------------------------Gas phase-----------------------------------

Total pressure: 601.68      atmospheres          (Peng-Robinson calculation)
    Gas volume:   1.00e+00 liters
  Molar volume:   5.77e-02 liters/mole
   P * Vm / RT:  0.99923  (Compressibility Factor Z) 

                                                        Moles in gas
                                            ----------------------------------
Component         log P           P    phi     Initial       Final       Delta

N2(g)              2.78   6.017e+02  0.999   1.600e+01   1.734e+01   1.342e+00

-----------------------------Solution composition------------------------------

	Elements           Molality       Moles

	N                 4.176e-01   4.176e-01

----------------------------Description of solution----------------------------

                                       pH  =   6.797      Charge balance
                                       pe  =   3.201      Adjusted to redox equilibrium
       Specific Conductance (uS/cm, 150 oC) = 23
                          Density (g/cm3)  =   0.94796
                        Activity of water  =   0.996
                           Ionic strength  =   1.207e-05
                       Mass of water (kg)  =   1.000e+00
                 Total alkalinity (eq/kg)  =   2.382e-05
                    Total carbon (mol/kg)  =   0.000e+00
                       Total CO2 (mol/kg)  =   0.000e+00
                      Temperature (deg C)  = 150.00
                           Pressure (atm)  = 601.68
                  Electrical balance (eq)  =  -2.382e-05
 Percent error, 100*(Cat-|An|)/(Cat+|An|)  = -98.67
                               Iterations  =  40
                                  Total H  = 1.110125e+02
                                  Total O  = 5.550624e+01

----------------------------Distribution of species----------------------------

                                               Log       Log       Log    mole V
   Species          Molality    Activity  Molality  Activity     Gamma   cm3/mol

   OH-             2.398e-05   2.386e-05    -4.620    -4.622    -0.002     -8.42
   H+              1.605e-07   1.597e-07    -6.794    -6.797    -0.002      0.00
   H2O             5.551e+01   9.964e-01     1.744    -0.002     0.000     19.01
H(0)          3.655e-24
   H2              1.828e-24   1.828e-24   -23.738   -23.738     0.000     28.32
N(-3)         1.157e-28
   NH3             6.770e-29   6.770e-29   -28.169   -28.169     0.000     24.86
   NH4+            4.799e-29   4.774e-29   -28.319   -28.321    -0.002     17.24
N(0)          4.176e-01
   N2              2.088e-01   2.088e-01    -0.680    -0.680     0.000     29.29
N(3)          1.053e-14
   NO2-            1.053e-14   1.047e-14   -13.978   -13.980    -0.002     22.32
N(5)          1.010e-13
   NO3-            1.010e-13   1.005e-13   -12.996   -12.998    -0.002     30.16
O(0)          2.662e-17
   O2              1.331e-17   1.331e-17   -16.876   -16.876     0.000     33.64

------------------------------Saturation indices-------------------------------

	Phase               SI   log IAP   log K(423 K, 602 atm)

	H2(g)           -20.76    -23.74   -2.98  H2
	H2O(g)            0.80     -0.00   -0.80  H2O
	N2(g)             2.78     -0.68   -3.46  N2	 Pressure 601.7 atm, phi 0.999.
	NH3(g)          -28.15    -28.17   -0.02  NH3
	O2(g)           -13.55    -16.88   -3.33  O2


Reaction step 14.

Using solution 1.	
Using gas phase 1.	
Using reaction 1.	

Reaction 1.	

	  1.350e+00 moles of the following reaction have been added:

	                 Relative
	Reactant            moles

	N2                   1.00000

	                 Relative
	Element             moles
	N                    2.00000

-----------------------------------Gas phase-----------------------------------

Total pressure: 648.23      atmospheres          (Peng-Robinson calculation)
    Gas volume:   1.00e+00 liters
  Molar volume:   5.35e-02 liters/mole
   P * Vm / RT:  0.99918  (Compressibility Factor Z) 

                                                        Moles in gas
                                            ----------------------------------
Component         log P           P    phi     Initial       Final       Delta

N2(g)              2.81   6.482e+02  0.999   1.734e+01   1.868e+01   1.343e+00

-----------------------------Solution composition------------------------------

	Elements           Molality       Moles

	N                 4.326e-01   4.326e-01

----------------------------Description of solution----------------------------

                                       pH  =   6.784      Charge balance
                                       pe  =   3.209      Adjusted to redox equilibrium
       Specific Conductance (uS/cm, 150 oC) = 23
                          Density (g/cm3)  =   0.95010
                        Activity of water  =   0.996
                           Ionic strength  =   1.208e-05
                       Mass of water (kg)  =   1.000e+00
                 Total alkalinity (eq/kg)  =   2.382e-05
                    Total carbon (mol/kg)  =   0.000e+00
                       Total CO2 (mol/kg)  =   0.000e+00
                      Temperature (deg C)  = 150.00
                           Pressure (atm)  = 648.23
                  Electrical balance (eq)  =  -2.382e-05
 Percent error, 100*(Cat-|An|)/(Cat+|An|)  = -98.63
                               Iterations  =  38
                                  Total H  = 1.110125e+02
                                  Total O  = 5.550624e+01

----------------------------Distribution of species----------------------------

                                               Log       Log       Log    mole V
   Species          Molality    Activity  Molality  Activity     Gamma   cm3/mol

   OH-             2.399e-05   2.386e-05    -4.620    -4.622    -0.002     -8.12
   H+              1.654e-07   1.646e-07    -6.781    -6.784    -0.002      0.00
   H2O             5.551e+01   9.963e-01     1.744    -0.002     0.000     18.96
H(0)          3.596e-24
   H2              1.798e-24   1.798e-24   -23.745   -23.745     0.000     28.31
N(-3)         1.219e-28
   NH3             7.020e-29   7.020e-29   -28.154   -28.154     0.000     24.84
   NH4+            5.173e-29   5.146e-29   -28.286   -28.289    -0.002     17.29
N(0)          4.326e-01
   N2              2.163e-01   2.163e-01    -0.665    -0.665     0.000     29.29
N(3)          1.046e-14
   NO2-            1.046e-14   1.040e-14   -13.981   -13.983    -0.002     22.39
N(5)          9.986e-14
   NO3-            9.986e-14   9.934e-14   -13.001   -13.003    -0.002     30.07
O(0)          2.568e-17
   O2              1.284e-17   1.284e-17   -16.891   -16.891     0.000     33.50

------------------------------Saturation indices-------------------------------

	Phase               SI   log IAP   log K(423 K, 648 atm)

	H2(g)           -20.77    -23.75   -2.98  H2
	H2O(g)            0.81     -0.00   -0.81  H2O
	N2(g)             2.81     -0.66   -3.48  N2	 Pressure 648.2 atm, phi 0.999.
	NH3(g)          -28.12    -28.15   -0.03  NH3
	O2(g)           -13.54    -16.89   -3.35  O2


Reaction step 15.

Using solution 1.	
Using gas phase 1.	
Using reaction 1.	

Reaction 1.	

	  1.350e+00 moles of the following reaction have been added:

	                 Relative
	Reactant            moles

	N2                   1.00000

	                 Relative
	Element             moles
	N                    2.00000

-----------------------------------Gas phase-----------------------------------

Total pressure: 694.81      atmospheres          (Peng-Robinson calculation)
    Gas volume:   1.00e+00 liters
  Molar volume:   4.99e-02 liters/mole
   P * Vm / RT:  0.99913  (Compressibility Factor Z) 

                                                        Moles in gas
                                            ----------------------------------
Component         log P           P    phi     Initial       Final       Delta

N2(g)              2.84   6.948e+02  0.999   1.868e+01   2.003e+01   1.343e+00

-----------------------------Solution composition------------------------------

	Elements           Molality       Moles

	N                 4.458e-01   4.458e-01

----------------------------Description of solution----------------------------

                                       pH  =   6.771      Charge balance
                                       pe  =   3.217      Adjusted to redox equilibrium
       Specific Conductance (uS/cm, 150 oC) = 23
                          Density (g/cm3)  =   0.95222
                        Activity of water  =   0.996
                           Ionic strength  =   1.208e-05
                       Mass of water (kg)  =   1.000e+00
                 Total alkalinity (eq/kg)  =   2.382e-05
                    Total carbon (mol/kg)  =   0.000e+00
                       Total CO2 (mol/kg)  =   0.000e+00
                      Temperature (deg C)  = 150.00
                           Pressure (atm)  = 694.81
                  Electrical balance (eq)  =  -2.382e-05
 Percent error, 100*(Cat-|An|)/(Cat+|An|)  = -98.59
                               Iterations  =  34
                                  Total H  = 1.110125e+02
                                  Total O  = 5.550624e+01

----------------------------Distribution of species----------------------------

                                               Log       Log       Log    mole V
   Species          Molality    Activity  Molality  Activity     Gamma   cm3/mol

   OH-             2.399e-05   2.387e-05    -4.620    -4.622    -0.002     -7.82
   H+              1.703e-07   1.694e-07    -6.769    -6.771    -0.002      0.00
   H2O             5.551e+01   9.962e-01     1.744    -0.002     0.000     18.92
H(0)          3.537e-24
   H2              1.769e-24   1.769e-24   -23.752   -23.752     0.000     28.29
N(-3)         1.282e-28
   NH3             7.260e-29   7.260e-29   -28.139   -28.139     0.000     24.82
   NH4+            5.557e-29   5.529e-29   -28.255   -28.257    -0.002     17.33
N(0)          4.458e-01
   N2              2.229e-01   2.229e-01    -0.652    -0.652     0.000     29.29
N(3)          1.036e-14
   NO2-            1.036e-14   1.031e-14   -13.984   -13.987    -0.002     22.45
N(5)          9.858e-14
   NO3-            9.858e-14   9.808e-14   -13.006   -13.008    -0.002     29.99
O(0)          2.478e-17
   O2              1.239e-17   1.239e-17   -16.907   -16.907     0.000     33.36

------------------------------Saturation indices-------------------------------

	Phase               SI   log IAP   log K(423 K, 695 atm)

	H2(g)           -20.77    -23.75   -2.98  H2
	H2O(g)            0.82     -0.00   -0.82  H2O
	N2(g)             2.84     -0.65   -3.49  N2	 Pressure 694.8 atm, phi 0.999.
	NH3(g)          -28.10    -28.14   -0.04  NH3
	O2(g)           -13.54    -16.91   -3.37  O2


Reaction step 16.

Using solution 1.	
Using gas phase 1.	
Using reaction 1.	

Reaction 1.	

	  1.350e+00 moles of the following reaction have been added:

	                 Relative
	Reactant            moles

	N2                   1.00000

	                 Relative
	Element             moles
	N                    2.00000

-----------------------------------Gas phase-----------------------------------

Total pressure: 741.40      atmospheres          (Peng-Robinson calculation)
    Gas volume:   1.00e+00 liters
  Molar volume:   4.68e-02 liters/mole
   P * Vm / RT:  0.99908  (Compressibility Factor Z) 

                                                        Moles in gas
                                            ----------------------------------
Component         log P           P    phi     Initial       Final       Delta

N2(g)              2.87   7.414e+02  0.999   2.003e+01   2.137e+01   1.344e+00

-----------------------------Solution composition------------------------------

	Elements           Molality       Moles

	N                 4.573e-01   4.573e-01

----------------------------Description of solution----------------------------

                                       pH  =   6.759      Charge balance
                                       pe  =   3.228      Adjusted to redox equilibrium
       Specific Conductance (uS/cm, 150 oC) = 23
                          Density (g/cm3)  =   0.95431
                        Activity of water  =   0.996
                           Ionic strength  =   1.209e-05
                       Mass of water (kg)  =   1.000e+00
                 Total alkalinity (eq/kg)  =   2.382e-05
                    Total carbon (mol/kg)  =   0.000e+00
                       Total CO2 (mol/kg)  =   0.000e+00
                      Temperature (deg C)  = 150.00
                           Pressure (atm)  = 741.40
                  Electrical balance (eq)  =  -2.382e-05
 Percent error, 100*(Cat-|An|)/(Cat+|An|)  = -98.55
                               Iterations  =  27
                                  Total H  = 1.110125e+02
                                  Total O  = 5.550624e+01

----------------------------Distribution of species----------------------------

                                               Log       Log       Log    mole V
   Species          Molality    Activity  Molality  Activity     Gamma   cm3/mol

   OH-             2.400e-05   2.387e-05    -4.620    -4.622    -0.002     -7.54
   H+              1.752e-07   1.744e-07    -6.756    -6.759    -0.002      0.00
   H2O             5.551e+01   9.961e-01     1.744    -0.002     0.000     18.88
H(0)          3.423e-24
   H2              1.712e-24   1.712e-24   -23.767   -23.767     0.000     28.28
N(-3)         1.312e-28
   NH3             7.312e-29   7.312e-29   -28.136   -28.136     0.000     24.79
   NH4+            5.809e-29   5.779e-29   -28.236   -28.238    -0.002     17.37
N(0)          4.573e-01
   N2              2.287e-01   2.287e-01    -0.641    -0.641     0.000     29.29
N(3)          1.051e-14
   NO2-            1.051e-14   1.045e-14   -13.978   -13.981    -0.002     22.51
N(5)          1.012e-13
   NO3-            1.012e-13   1.007e-13   -12.995   -12.997    -0.002     29.91
O(0)          2.470e-17
   O2              1.235e-17   1.235e-17   -16.908   -16.908     0.000     33.23

------------------------------Saturation indices-------------------------------

	Phase               SI   log IAP   log K(423 K, 741 atm)

	H2(g)           -20.79    -23.77   -2.98  H2
	H2O(g)            0.83     -0.00   -0.83  H2O
	N2(g)             2.87     -0.64   -3.51  N2	 Pressure 741.4 atm, phi 0.999.
	NH3(g)          -28.09    -28.14   -0.05  NH3
	O2(g)           -13.52    -16.91   -3.39  O2


Reaction step 17.

Using solution 1.	
Using gas phase 1.	
Using reaction 1.	

Reaction 1.	

	  1.350e+00 moles of the following reaction have been added:

	                 Relative
	Reactant            moles

	N2                   1.00000

	                 Relative
	Element             moles
	N                    2.00000

-----------------------------------Gas phase-----------------------------------

Total pressure: 788.03      atmospheres          (Peng-Robinson calculation)
    Gas volume:   1.00e+00 liters
  Molar volume:   4.40e-02 liters/mole
   P * Vm / RT:  0.99903  (Compressibility Factor Z) 

                                                        Moles in gas
                                            ----------------------------------
Component         log P           P    phi     Initial       Final       Delta

N2(g)              2.90   7.880e+02  0.999   2.137e+01   2.272e+01   1.345e+00

-----------------------------Solution composition------------------------------

	Elements           Molality       Moles

	N                 4.673e-01   4.673e-01

----------------------------Description of solution----------------------------

                                       pH  =   6.746      Charge balance
                                       pe  =   3.237      Adjusted to redox equilibrium
       Specific Conductance (uS/cm, 150 oC) = 23
                          Density (g/cm3)  =   0.95637
                        Activity of water  =   0.996
                           Ionic strength  =   1.209e-05
                       Mass of water (kg)  =   1.000e+00
                 Total alkalinity (eq/kg)  =   2.382e-05
                    Total carbon (mol/kg)  =   0.000e+00
                       Total CO2 (mol/kg)  =   0.000e+00
                      Temperature (deg C)  = 150.00
                           Pressure (atm)  = 788.03
                  Electrical balance (eq)  =  -2.382e-05
 Percent error, 100*(Cat-|An|)/(Cat+|An|)  = -98.51
                               Iterations  =  82
                                  Total H  = 1.110125e+02
                                  Total O  = 5.550624e+01

----------------------------Distribution of species----------------------------

                                               Log       Log       Log    mole V
   Species          Molality    Activity  Molality  Activity     Gamma   cm3/mol

   OH-             2.400e-05   2.388e-05    -4.620    -4.622    -0.002     -7.26
   H+              1.802e-07   1.793e-07    -6.744    -6.746    -0.002      0.00
   H2O             5.551e+01   9.960e-01     1.744    -0.002     0.000     18.84
H(0)          3.351e-24
   H2              1.676e-24   1.676e-24   -23.776   -23.776     0.000     28.27
N(-3)         1.364e-28
   NH3             7.476e-29   7.476e-29   -28.126   -28.126     0.000     24.77
   NH4+            6.160e-29   6.129e-29   -28.210   -28.213    -0.002     17.41
N(0)          4.673e-01
   N2              2.336e-01   2.337e-01    -0.631    -0.631     0.000     29.29
N(3)          1.046e-14
   NO2-            1.046e-14   1.040e-14   -13.981   -13.983    -0.002     22.57
N(5)          1.008e-13
   NO3-            1.008e-13   1.003e-13   -12.996   -12.999    -0.002     29.83
O(0)          2.408e-17
   O2              1.204e-17   1.204e-17   -16.919   -16.919     0.000     33.10

------------------------------Saturation indices-------------------------------

	Phase               SI   log IAP   log K(423 K, 788 atm)

	H2(g)           -20.80    -23.78   -2.98  H2
	H2O(g)            0.84     -0.00   -0.84  H2O
	N2(g)             2.90     -0.63   -3.53  N2	 Pressure 788.0 atm, phi 0.999.
	NH3(g)          -28.07    -28.13   -0.05  NH3
	O2(g)           -13.51    -16.92   -3.41  O2


Reaction step 18.

Using solution 1.	
Using gas phase 1.	
Using reaction 1.	

Reaction 1.	

	  1.350e+00 moles of the following reaction have been added:

	                 Relative
	Reactant            moles

	N2                   1.00000

	                 Relative
	Element             moles
	N                    2.00000

-----------------------------------Gas phase-----------------------------------

Total pressure: 834.67      atmospheres          (Peng-Robinson calculation)
    Gas volume:   1.00e+00 liters
  Molar volume:   4.16e-02 liters/mole
   P * Vm / RT:  0.99898  (Compressibility Factor Z) 

                                                        Moles in gas
                                            ----------------------------------
Component         log P           P    phi     Initial       Final       Delta

N2(g)              2.92   8.347e+02  0.999   2.272e+01   2.406e+01   1.346e+00

-----------------------------Solution composition------------------------------

	Elements           Molality       Moles

	N                 4.758e-01   4.758e-01

----------------------------Description of solution----------------------------

                                       pH  =   6.735      Charge balance
                                       pe  =   3.248      Adjusted to redox equilibrium
       Specific Conductance (uS/cm, 150 oC) = 23
                          Density (g/cm3)  =   0.95841
                        Activity of water  =   0.996
                           Ionic strength  =   1.210e-05
                       Mass of water (kg)  =   1.000e+00
                 Total alkalinity (eq/kg)  =   2.382e-05
                    Total carbon (mol/kg)  =   0.000e+00
                       Total CO2 (mol/kg)  =   0.000e+00
                      Temperature (deg C)  = 150.00
                           Pressure (atm)  = 834.67
                  Electrical balance (eq)  =  -2.382e-05
 Percent error, 100*(Cat-|An|)/(Cat+|An|)  = -98.47
                               Iterations  =  81
                                  Total H  = 1.110125e+02
                                  Total O  = 5.550624e+01

----------------------------Distribution of species----------------------------

                                               Log       Log       Log    mole V
   Species          Molality    Activity  Molality  Activity     Gamma   cm3/mol

   OH-             2.401e-05   2.388e-05    -4.620    -4.622    -0.002     -6.99
   H+              1.852e-07   1.843e-07    -6.732    -6.735    -0.002      0.00
   H2O             5.551e+01   9.960e-01     1.744    -0.002     0.000     18.80
H(0)          3.234e-24
   H2              1.617e-24   1.617e-24   -23.791   -23.791     0.000     28.25
N(-3)         1.385e-28
   NH3             7.470e-29   7.470e-29   -28.127   -28.127     0.000     24.75
   NH4+            6.379e-29   6.346e-29   -28.195   -28.197    -0.002     17.45
N(0)          4.758e-01
   N2              2.379e-01   2.379e-01    -0.624    -0.624     0.000     29.29
N(3)          1.062e-14
   NO2-            1.062e-14   1.056e-14   -13.974   -13.976    -0.002     22.62
N(5)          1.039e-13
   NO3-            1.039e-13   1.034e-13   -12.983   -12.985    -0.002     29.76
O(0)          2.414e-17
   O2              1.207e-17   1.207e-17   -16.918   -16.918     0.000     32.98

------------------------------Saturation indices-------------------------------

	Phase               SI   log IAP   log K(423 K, 835 atm)

	H2(g)           -20.81    -23.79   -2.98  H2
	H2O(g)            0.85     -0.00   -0.85  H2O
	N2(g)             2.92     -0.62   -3.54  N2	 Pressure 834.7 atm, phi 0.999.
	NH3(g)          -28.06    -28.13   -0.06  NH3
	O2(g)           -13.49    -16.92   -3.43  O2


Reaction step 19.

WARNING: Numerical method failed, switching to numerical derivatives.
WARNING: Maximum iterations exceeded, 100

WARNING: Numerical method failed with this set of convergence parameters.

WARNING: Trying smaller step size, pe step size 10, 5 ... 

Using solution 1.	
Using gas phase 1.	
Using reaction 1.	

Reaction 1.	

	  1.350e+00 moles of the following reaction have been added:

	                 Relative
	Reactant            moles

	N2                   1.00000

	                 Relative
	Element             moles
	N                    2.00000

-----------------------------------Gas phase-----------------------------------

Total pressure: 881.34      atmospheres          (Peng-Robinson calculation)
    Gas volume:   1.00e+00 liters
  Molar volume:   3.94e-02 liters/mole
   P * Vm / RT:  0.99894  (Compressibility Factor Z) 

                                                        Moles in gas
                                            ----------------------------------
Component         log P           P    phi     Initial       Final       Delta

N2(g)              2.95   8.813e+02  0.999   2.406e+01   2.541e+01   1.346e+00

-----------------------------Solution composition------------------------------

	Elements           Molality       Moles

	N                 4.830e-01   4.830e-01

----------------------------Description of solution----------------------------

                                       pH  =   6.723      Charge balance
                                       pe  =   3.257      Adjusted to redox equilibrium
       Specific Conductance (uS/cm, 150 oC) = 23
                          Density (g/cm3)  =   0.96041
                        Activity of water  =   0.996
                           Ionic strength  =   1.210e-05
                       Mass of water (kg)  =   1.000e+00
                 Total alkalinity (eq/kg)  =   2.382e-05
                    Total carbon (mol/kg)  =   0.000e+00
                       Total CO2 (mol/kg)  =   0.000e+00
                      Temperature (deg C)  = 150.00
                           Pressure (atm)  = 881.34
                  Electrical balance (eq)  =  -2.382e-05
 Percent error, 100*(Cat-|An|)/(Cat+|An|)  = -98.43
                               Iterations  =  10
                                  Total H  = 1.110125e+02
                                  Total O  = 5.550624e+01

----------------------------Distribution of species----------------------------

                                               Log       Log       Log    mole V
   Species          Molality    Activity  Molality  Activity     Gamma   cm3/mol

   OH-             2.401e-05   2.389e-05    -4.620    -4.622    -0.002     -6.73
   H+              1.902e-07   1.893e-07    -6.721    -6.723    -0.002      0.00
   H2O             5.551e+01   9.959e-01     1.744    -0.002     0.000     18.76
H(0)          3.159e-24
   H2              1.580e-24   1.580e-24   -23.801   -23.801     0.000     28.24
N(-3)         1.430e-28
   NH3             7.589e-29   7.589e-29   -28.120   -28.120     0.000     24.72
   NH4+            6.712e-29   6.678e-29   -28.173   -28.175    -0.002     17.49
N(0)          4.830e-01
   N2              2.415e-01   2.415e-01    -0.617    -0.617     0.000     29.29
N(3)          1.057e-14
   NO2-            1.057e-14   1.052e-14   -13.976   -13.978    -0.002     22.68
N(5)          1.039e-13
   NO3-            1.039e-13   1.033e-13   -12.983   -12.986    -0.002     29.68
O(0)          2.363e-17
   O2              1.182e-17   1.182e-17   -16.927   -16.927     0.000     32.86

------------------------------Saturation indices-------------------------------

	Phase               SI   log IAP   log K(423 K, 881 atm)

	H2(g)           -20.82    -23.80   -2.98  H2
	H2O(g)            0.86     -0.00   -0.87  H2O
	N2(g)             2.94     -0.62   -3.56  N2	 Pressure 881.3 atm, phi 0.999.
	NH3(g)          -28.05    -28.12   -0.07  NH3
	O2(g)           -13.47    -16.93   -3.45  O2


Reaction step 20.

Using solution 1.	
Using gas phase 1.	
Using reaction 1.	

Reaction 1.	

	  1.350e+00 moles of the following reaction have been added:

	                 Relative
	Reactant            moles

	N2                   1.00000

	                 Relative
	Element             moles
	N                    2.00000

-----------------------------------Gas phase-----------------------------------

Total pressure: 928.02      atmospheres          (Peng-Robinson calculation)
    Gas volume:   1.00e+00 liters
  Molar volume:   3.74e-02 liters/mole
   P * Vm / RT:  0.99889  (Compressibility Factor Z) 

                                                        Moles in gas
                                            ----------------------------------
Component         log P           P    phi     Initial       Final       Delta

N2(g)              2.97   9.280e+02  0.999   2.541e+01   2.676e+01   1.347e+00

-----------------------------Solution composition------------------------------

	Elements           Molality       Moles

	N                 4.889e-01   4.889e-01

----------------------------Description of solution----------------------------

                                       pH  =   6.712      Charge balance
                                       pe  =   3.268      Adjusted to redox equilibrium
       Specific Conductance (uS/cm, 150 oC) = 23
                          Density (g/cm3)  =   0.96240
                        Activity of water  =   0.996
                           Ionic strength  =   1.211e-05
                       Mass of water (kg)  =   1.000e+00
                 Total alkalinity (eq/kg)  =   2.382e-05
                    Total carbon (mol/kg)  =   0.000e+00
                       Total CO2 (mol/kg)  =   0.000e+00
                      Temperature (deg C)  = 150.00
                           Pressure (atm)  = 928.02
                  Electrical balance (eq)  =  -2.382e-05
 Percent error, 100*(Cat-|An|)/(Cat+|An|)  = -98.39
                               Iterations  =  12
                                  Total H  = 1.110125e+02
                                  Total O  = 5.550624e+01

----------------------------Distribution of species----------------------------

                                               Log       Log       Log    mole V
   Species          Molality    Activity  Molality  Activity     Gamma   cm3/mol

   OH-             2.402e-05   2.389e-05    -4.620    -4.622    -0.002     -6.48
   H+              1.953e-07   1.943e-07    -6.709    -6.712    -0.002      0.00
   H2O             5.551e+01   9.958e-01     1.744    -0.002     0.000     18.72
H(0)          3.049e-24
   H2              1.525e-24   1.525e-24   -23.817   -23.817     0.000     28.23
N(-3)         1.448e-28
   NH3             7.561e-29   7.561e-29   -28.121   -28.121     0.000     24.70
   NH4+            6.922e-29   6.887e-29   -28.160   -28.162    -0.002     17.53
N(0)          4.889e-01
   N2              2.445e-01   2.445e-01    -0.612    -0.612     0.000     29.29
N(3)          1.070e-14
   NO2-            1.070e-14   1.065e-14   -13.970   -13.973    -0.002     22.73
N(5)          1.069e-13
   NO3-            1.069e-13   1.063e-13   -12.971   -12.973    -0.002     29.61
O(0)          2.370e-17
   O2              1.185e-17   1.185e-17   -16.926   -16.926     0.000     32.74

------------------------------Saturation indices-------------------------------

	Phase               SI   log IAP   log K(423 K, 928 atm)

	H2(g)           -20.84    -23.82   -2.98  H2
	H2O(g)            0.87     -0.00   -0.88  H2O
	N2(g)             2.97     -0.61   -3.58  N2	 Pressure 928.0 atm, phi 0.999.
	NH3(g)          -28.04    -28.12   -0.08  NH3
	O2(g)           -13.45    -16.93   -3.47  O2


------------------
End of simulation.
------------------

------------------------------------
Reading input data for simulation 2.
------------------------------------

	PHASES
	N2(g)
	N2 = N2
	log_k		 -3.1864
	analytical_expression -58.453 1.81800E-03  3199  17.909 -27460
	USE solution 1
	 USE gas_phase 1
	REACTION 1
	 N2 1
	 27 in 20
	USER_GRAPH
	 -headings Vm N2-ideal
	END
-----------------------------------------
Beginning of batch-reaction calculations.
-----------------------------------------

Reaction step 1.

Using solution 1.	
Using gas phase 1.	
Using reaction 1.	

Reaction 1.	

	  1.350e+00 moles of the following reaction have been added:

	                 Relative
	Reactant            moles

	N2                   1.00000

	                 Relative
	Element             moles
	N                    2.00000

-----------------------------------Gas phase-----------------------------------

Total pressure: 45.99      atmospheres 
    Gas volume:   1.00e+00 liters
  Molar volume:   7.55e-01 liters/mole

                                                        Moles in gas
                                            ----------------------------------
Component                log P           P     Initial       Final       Delta

N2(g)                     1.66   4.599e+01   0.000e+00   1.324e+00   1.324e+00

[...]
   Species          Molality    Activity  Molality  Activity     Gamma   cm3/mol

   OH-             2.399e-05   2.387e-05    -4.620    -4.622    -0.002     -7.82
   H+              1.704e-07   1.695e-07    -6.769    -6.771    -0.002      0.00
   H2O             5.551e+01   9.962e-01     1.744    -0.002     0.000     18.92
H(0)          3.421e-24
   H2              1.710e-24   1.710e-24   -23.767   -23.767     0.000     28.29
N(-3)         1.221e-28
   NH3             6.913e-29   6.913e-29   -28.160   -28.160     0.000     24.81
   NH4+            5.294e-29   5.267e-29   -28.276   -28.278    -0.002     17.33
N(0)          4.464e-01
   N2              2.232e-01   2.232e-01    -0.651    -0.651     0.000     29.29
N(3)          1.090e-14
   NO2-            1.090e-14   1.084e-14   -13.963   -13.965    -0.002     22.45
N(5)          1.072e-13
   NO3-            1.072e-13   1.066e-13   -12.970   -12.972    -0.002     29.99
O(0)          2.647e-17
   O2              1.324e-17   1.324e-17   -16.878   -16.878     0.000     33.36

------------------------------Saturation indices-------------------------------

	Phase               SI   log IAP   log K(423 K, 695 atm)

	H2(g)           -20.79    -23.77   -2.98  H2
	H2O(g)            0.82     -0.00   -0.82  H2O
	N2(g)             2.84     -0.65   -3.49  N2
	NH3(g)          -28.12    -28.16   -0.04  NH3
	O2(g)           -13.51    -16.88   -3.37  O2


Reaction step 16.

Using solution 1.	
Using gas phase 1.	
Using reaction 1.	

Reaction 1.	

	  1.350e+00 moles of the following reaction have been added:

	                 Relative
	Reactant            moles

	N2                   1.00000

	                 Relative
	Element             moles
	N                    2.00000

-----------------------------------Gas phase-----------------------------------

Total pressure: 742.08      atmospheres 
    Gas volume:   1.00e+00 liters
  Molar volume:   4.68e-02 liters/mole

                                                        Moles in gas
                                            ----------------------------------
Component                log P           P     Initial       Final       Delta

N2(g)                     2.87   7.421e+02   2.003e+01   2.137e+01   1.344e+00

-----------------------------Solution composition------------------------------

	Elements           Molality       Moles

	N                 4.579e-01   4.579e-01

----------------------------Description of solution----------------------------

                                       pH  =   6.758      Charge balance
                                       pe  =   3.235      Adjusted to redox equilibrium
       Specific Conductance (uS/cm, 150 oC) = 23
                          Density (g/cm3)  =   0.95434
                        Activity of water  =   0.996
                           Ionic strength  =   1.209e-05
                       Mass of water (kg)  =   1.000e+00
                 Total alkalinity (eq/kg)  =   2.382e-05
                    Total carbon (mol/kg)  =   0.000e+00
                       Total CO2 (mol/kg)  =   0.000e+00
                      Temperature (deg C)  = 150.00
                           Pressure (atm)  = 742.08
                  Electrical balance (eq)  =  -2.382e-05
 Percent error, 100*(Cat-|An|)/(Cat+|An|)  = -98.55
                               Iterations  =  63
                                  Total H  = 1.110125e+02
                                  Total O  = 5.550624e+01

----------------------------Distribution of species----------------------------

                                               Log       Log       Log    mole V
   Species          Molality    Activity  Molality  Activity     Gamma   cm3/mol

   OH-             2.400e-05   2.387e-05    -4.620    -4.622    -0.002     -7.53
   H+              1.753e-07   1.744e-07    -6.756    -6.758    -0.002      0.00
   H2O             5.551e+01   9.961e-01     1.744    -0.002     0.000     18.88
H(0)          3.319e-24
   H2              1.659e-24   1.659e-24   -23.780   -23.780     0.000     28.28
N(-3)         1.254e-28
   NH3             6.988e-29   6.988e-29   -28.156   -28.156     0.000     24.79
   NH4+            5.555e-29   5.526e-29   -28.255   -28.258    -0.002     17.37
N(0)          4.579e-01
   N2              2.290e-01   2.290e-01    -0.640    -0.640     0.000     29.29
N(3)          1.101e-14
   NO2-            1.101e-14   1.095e-14   -13.958   -13.960    -0.002     22.51
N(5)          1.093e-13
   NO3-            1.093e-13   1.088e-13   -12.961   -12.964    -0.002     29.91
O(0)          2.626e-17
   O2              1.313e-17   1.313e-17   -16.882   -16.882     0.000     33.23

------------------------------Saturation indices-------------------------------

	Phase               SI   log IAP   log K(423 K, 742 atm)

	H2(g)           -20.80    -23.78   -2.98  H2
	H2O(g)            0.83     -0.00   -0.83  H2O
	N2(g)             2.87     -0.64   -3.51  N2
	NH3(g)          -28.11    -28.16   -0.05  NH3
	O2(g)           -13.49    -16.88   -3.39  O2


Reaction step 17.

Using solution 1.	
Using gas phase 1.	
Using reaction 1.	

Reaction 1.	

	  1.350e+00 moles of the following reaction have been added:

	                 Relative
	Reactant            moles

	N2                   1.00000

	                 Relative
	Element             moles
	N                    2.00000

-----------------------------------Gas phase-----------------------------------

Total pressure: 788.78      atmospheres 
    Gas volume:   1.00e+00 liters
  Molar volume:   4.40e-02 liters/mole

                                                        Moles in gas
                                            ----------------------------------
Component                log P           P     Initial       Final       Delta

N2(g)                     2.90   7.888e+02   2.137e+01   2.272e+01   1.345e+00

-----------------------------Solution composition------------------------------

	Elements           Molality       Moles

	N                 4.679e-01   4.679e-01

----------------------------Description of solution----------------------------

                                       pH  =   6.746      Charge balance
                                       pe  =   3.244      Adjusted to redox equilibrium
       Specific Conductance (uS/cm, 150 oC) = 23
                          Density (g/cm3)  =   0.95640
                        Activity of water  =   0.996
                           Ionic strength  =   1.209e-05
                       Mass of water (kg)  =   1.000e+00
                 Total alkalinity (eq/kg)  =   2.382e-05
                    Total carbon (mol/kg)  =   0.000e+00
                       Total CO2 (mol/kg)  =   0.000e+00
                      Temperature (deg C)  = 150.00
                           Pressure (atm)  = 788.78
                  Electrical balance (eq)  =  -2.382e-05
 Percent error, 100*(Cat-|An|)/(Cat+|An|)  = -98.51
                               Iterations  =  72
                                  Total H  = 1.110125e+02
                                  Total O  = 5.550624e+01

----------------------------Distribution of species----------------------------

                                               Log       Log       Log    mole V
   Species          Molality    Activity  Molality  Activity     Gamma   cm3/mol

   OH-             2.400e-05   2.388e-05    -4.620    -4.622    -0.002     -7.26
   H+              1.803e-07   1.794e-07    -6.744    -6.746    -0.002      0.00
   H2O             5.551e+01   9.960e-01     1.744    -0.002     0.000     18.84
H(0)          3.249e-24
   H2              1.624e-24   1.624e-24   -23.789   -23.789     0.000     28.27
N(-3)         1.304e-28
   NH3             7.146e-29   7.146e-29   -28.146   -28.146     0.000     24.77
   NH4+            5.891e-29   5.861e-29   -28.230   -28.232    -0.002     17.41
N(0)          4.679e-01
   N2              2.340e-01   2.340e-01    -0.631    -0.631     0.000     29.29
N(3)          1.095e-14
   NO2-            1.095e-14   1.090e-14   -13.960   -13.963    -0.002     22.57
N(5)          1.089e-13
   NO3-            1.089e-13   1.084e-13   -12.963   -12.965    -0.002     29.83
O(0)          2.559e-17
   O2              1.280e-17   1.280e-17   -16.893   -16.893     0.000     33.10

------------------------------Saturation indices-------------------------------

	Phase               SI   log IAP   log K(423 K, 789 atm)

	H2(g)           -20.81    -23.79   -2.98  H2
	H2O(g)            0.84     -0.00   -0.84  H2O
	N2(g)             2.90     -0.63   -3.53  N2
	NH3(g)          -28.09    -28.15   -0.06  NH3
	O2(g)           -13.48    -16.89   -3.41  O2


Reaction step 18.

Using solution 1.	
Using gas phase 1.	
Using reaction 1.	

Reaction 1.	

	  1.350e+00 moles of the following reaction have been added:

	                 Relative
	Reactant            moles

	N2                   1.00000

	                 Relative
	Element             moles
	N                    2.00000

-----------------------------------Gas phase-----------------------------------

Total pressure: 835.51      atmospheres 
    Gas volume:   1.00e+00 liters
  Molar volume:   4.16e-02 liters/mole

                                                        Moles in gas
                                            ----------------------------------
Component                log P           P     Initial       Final       Delta

N2(g)                     2.92   8.355e+02   2.272e+01   2.406e+01   1.346e+00

-----------------------------Solution composition------------------------------

	Elements           Molality       Moles

	N                 4.765e-01   4.765e-01

----------------------------Description of solution----------------------------

                                       pH  =   6.734      Charge balance
                                       pe  =   3.253      Adjusted to redox equilibrium
       Specific Conductance (uS/cm, 150 oC) = 23
                          Density (g/cm3)  =   0.95844
                        Activity of water  =   0.996
                           Ionic strength  =   1.210e-05
                       Mass of water (kg)  =   1.000e+00
                 Total alkalinity (eq/kg)  =   2.382e-05
                    Total carbon (mol/kg)  =   0.000e+00
                       Total CO2 (mol/kg)  =   0.000e+00
                      Temperature (deg C)  = 150.00
                           Pressure (atm)  = 835.51
                  Electrical balance (eq)  =  -2.382e-05
 Percent error, 100*(Cat-|An|)/(Cat+|An|)  = -98.47
                               Iterations  =  84
                                  Total H  = 1.110125e+02
                                  Total O  = 5.550624e+01

----------------------------Distribution of species----------------------------

                                               Log       Log       Log    mole V
   Species          Molality    Activity  Molality  Activity     Gamma   cm3/mol

   OH-             2.401e-05   2.388e-05    -4.620    -4.622    -0.002     -6.99
   H+              1.853e-07   1.844e-07    -6.732    -6.734    -0.002      0.00
   H2O             5.551e+01   9.959e-01     1.744    -0.002     0.000     18.80
H(0)          3.167e-24
   H2              1.583e-24   1.583e-24   -23.800   -23.800     0.000     28.25
N(-3)         1.344e-28
   NH3             7.248e-29   7.248e-29   -28.140   -28.140     0.000     24.75
   NH4+            6.194e-29   6.162e-29   -28.208   -28.210    -0.002     17.45
N(0)          4.765e-01
   N2              2.383e-01   2.383e-01    -0.623    -0.623     0.000     29.29
N(3)          1.095e-14
   NO2-            1.095e-14   1.090e-14   -13.960   -13.963    -0.002     22.63
N(5)          1.095e-13
   NO3-            1.095e-13   1.089e-13   -12.961   -12.963    -0.002     29.76
O(0)          2.515e-17
   O2              1.258e-17   1.258e-17   -16.900   -16.900     0.000     32.98

------------------------------Saturation indices-------------------------------

	Phase               SI   log IAP   log K(423 K, 836 atm)

	H2(g)           -20.82    -23.80   -2.98  H2
	H2O(g)            0.85     -0.00   -0.85  H2O
	N2(g)             2.92     -0.62   -3.54  N2
	NH3(g)          -28.08    -28.14   -0.06  NH3
	O2(g)           -13.47    -16.90   -3.43  O2


Reaction step 19.

Using solution 1.	
Using gas phase 1.	
Using reaction 1.	

Reaction 1.	

	  1.350e+00 moles of the following reaction have been added:

	                 Relative
	Reactant            moles

	N2                   1.00000

	                 Relative
	Element             moles
	N                    2.00000

-----------------------------------Gas phase-----------------------------------

Total pressure: 882.26      atmospheres 
    Gas volume:   1.00e+00 liters
  Molar volume:   3.94e-02 liters/mole

                                                        Moles in gas
                                            ----------------------------------
Component                log P           P     Initial       Final       Delta

N2(g)                     2.95   8.823e+02   2.406e+01   2.541e+01   1.346e+00

-----------------------------Solution composition------------------------------

	Elements           Molality       Moles

	N                 4.837e-01   4.837e-01

----------------------------Description of solution----------------------------

                                       pH  =   6.723      Charge balance
                                       pe  =   3.260      Adjusted to redox equilibrium
       Specific Conductance (uS/cm, 150 oC) = 23
                          Density (g/cm3)  =   0.96045
                        Activity of water  =   0.996
                           Ionic strength  =   1.210e-05
                       Mass of water (kg)  =   1.000e+00
                 Total alkalinity (eq/kg)  =   2.382e-05
                    Total carbon (mol/kg)  =   0.000e+00
                       Total CO2 (mol/kg)  =   0.000e+00
                      Temperature (deg C)  = 150.00
                           Pressure (atm)  = 882.26
                  Electrical balance (eq)  =  -2.382e-05
 Percent error, 100*(Cat-|An|)/(Cat+|An|)  = -98.43
                               Iterations  =  85
                                  Total H  = 1.110125e+02
                                  Total O  = 5.550624e+01

----------------------------Distribution of species----------------------------

                                               Log       Log       Log    mole V
   Species          Molality    Activity  Molality  Activity     Gamma   cm3/mol

   OH-             2.401e-05   2.389e-05    -4.620    -4.622    -0.002     -6.73
   H+              1.903e-07   1.894e-07    -6.720    -6.723    -0.002      0.00
   H2O             5.551e+01   9.959e-01     1.744    -0.002     0.000     18.76
H(0)          3.118e-24
   H2              1.559e-24   1.559e-24   -23.807   -23.807     0.000     28.24
N(-3)         1.405e-28
   NH3             7.453e-29   7.453e-29   -28.128   -28.128     0.000     24.72
   NH4+            6.596e-29   6.563e-29   -28.181   -28.183    -0.002     17.49
N(0)          4.837e-01
   N2              2.419e-01   2.419e-01    -0.616    -0.616     0.000     29.29
N(3)          1.078e-14
   NO2-            1.078e-14   1.072e-14   -13.967   -13.970    -0.002     22.68
N(5)          1.073e-13
   NO3-            1.073e-13   1.067e-13   -12.970   -12.972    -0.002     29.68
O(0)          2.423e-17
   O2              1.211e-17   1.211e-17   -16.917   -16.917     0.000     32.86

------------------------------Saturation indices-------------------------------

	Phase               SI   log IAP   log K(423 K, 882 atm)

	H2(g)           -20.83    -23.81   -2.98  H2
	H2O(g)            0.86     -0.00   -0.87  H2O
	N2(g)             2.95     -0.62   -3.56  N2
	NH3(g)          -28.06    -28.13   -0.07  NH3
	O2(g)           -13.46    -16.92   -3.45  O2


Reaction step 20.

WARNING: Maximum iterations exceeded, 100

WARNING: Numerical method failed with this set of convergence parameters.

WARNING: Trying smaller step size, pe step size 10, 5 ... 

Using solution 1.	
Using gas phase 1.	
Using reaction 1.	

Reaction 1.	

	  1.350e+00 moles of the following reaction have been added:

	                 Relative
	Reactant            moles

	N2                   1.00000

	                 Relative
	Element             moles
	N                    2.00000

-----------------------------------Gas phase-----------------------------------

Total pressure: 929.03      atmospheres 
    Gas volume:   1.00e+00 liters
  Molar volume:   3.74e-02 liters/mole

                                                        Moles in gas
                                            ----------------------------------
Component                log P           P     Initial       Final       Delta

N2(g)                     2.97   9.290e+02   2.541e+01   2.676e+01   1.347e+00

-----------------------------Solution composition------------------------------

	Elements           Molality       Moles

	N                 4.897e-01   4.897e-01

----------------------------Description of solution----------------------------

                                       pH  =   6.711      Charge balance
                                       pe  =   3.268      Adjusted to redox equilibrium
       Specific Conductance (uS/cm, 150 oC) = 23
                          Density (g/cm3)  =   0.96244
                        Activity of water  =   0.996
                           Ionic strength  =   1.211e-05
                       Mass of water (kg)  =   1.000e+00
                 Total alkalinity (eq/kg)  =   2.382e-05
                    Total carbon (mol/kg)  =   0.000e+00
                       Total CO2 (mol/kg)  =   0.000e+00
                      Temperature (deg C)  = 150.00
                           Pressure (atm)  = 929.03
                  Electrical balance (eq)  =  -2.382e-05
 Percent error, 100*(Cat-|An|)/(Cat+|An|)  = -98.39
                               Iterations  = 114
                                  Total H  = 1.110125e+02
                                  Total O  = 5.550624e+01

----------------------------Distribution of species----------------------------

                                               Log       Log       Log    mole V
   Species          Molality    Activity  Molality  Activity     Gamma   cm3/mol

   OH-             2.402e-05   2.389e-05    -4.619    -4.622    -0.002     -6.48
   H+              1.954e-07   1.944e-07    -6.709    -6.711    -0.002      0.00
   H2O             5.551e+01   9.958e-01     1.744    -0.002     0.000     18.72
H(0)          3.051e-24
   H2              1.525e-24   1.525e-24   -23.817   -23.817     0.000     28.23
N(-3)         1.452e-28
   NH3             7.580e-29   7.580e-29   -28.120   -28.120     0.000     24.70
   NH4+            6.944e-29   6.909e-29   -28.158   -28.161    -0.002     17.53
N(0)          4.897e-01
   N2              2.448e-01   2.448e-01    -0.611    -0.611     0.000     29.29
N(3)          1.069e-14
   NO2-            1.069e-14   1.064e-14   -13.971   -13.973    -0.002     22.73
N(5)          1.067e-13
   NO3-            1.067e-13   1.061e-13   -12.972   -12.974    -0.002     29.61
O(0)          2.364e-17
   O2              1.182e-17   1.182e-17   -16.927   -16.927     0.000     32.74

------------------------------Saturation indices-------------------------------

	Phase               SI   log IAP   log K(423 K, 929 atm)

	H2(g)           -20.84    -23.82   -2.98  H2
	H2O(g)            0.87     -0.00   -0.88  H2O
	N2(g)             2.97     -0.61   -3.58  N2
	NH3(g)          -28.04    -28.12   -0.08  NH3
	O2(g)           -13.45    -16.93   -3.47  O2


------------------
End of simulation.
------------------

------------------------------------
Reading input data for simulation 3.
------------------------------------

-----------
End of run.
-----------

