   Input file: NaCl
  Output file: NaCl.out
Database file: ../database/pitzer.dat

------------------
Reading data base.
------------------

	SOLUTION_MASTER_SPECIES
	SOLUTION_SPECIES
	PHASES
	PITZER
	EXCHANGE_MASTER_SPECIES
	EXCHANGE_SPECIES
	SURFACE_MASTER_SPECIES
	SURFACE_SPECIES
	END
------------------------------------
Reading input data for simulation 1.
------------------------------------

	DATABASE ../database/pitzer.dat
	SOLUTION 1
	PHASES
	Halite
		NaCl = Na+ + Cl-
		log_k	   1.582
		delta_h 0.918 kcal
		vm 27
	EQUILIBRIUM_PHASES
	Halite
	REACTION_PRESSURE
	 1 1000 in 20
	USER_GRAPH
	 -headings P g_NaCl/kgw
	 10 graph_x pressure
	 20 graph_y tot("Na") * 58.44
	END
-------------------------------------------
Beginning of initial solution calculations.
-------------------------------------------

Initial solution 1.	

-----------------------------Solution composition------------------------------

	Elements           Molality       Moles

	Pure water     

----------------------------Description of solution----------------------------

                                       pH  =   7.000    
                                       pe  =   4.000    
       Specific Conductance (uS/cm, 25 oC) = 0
                          Density (g/cm3)  =   0.99700
                        Activity of water  =   1.000
                           Ionic strength  =   1.003e-07
                       Mass of water (kg)  =   1.000e+00
                 Total alkalinity (eq/kg)  =   4.618e-10
                    Total carbon (mol/kg)  =   0.000e+00
                       Total CO2 (mol/kg)  =   0.000e+00
                      Temperature (deg C)  =  25.00
                  Electrical balance (eq)  =  -4.618e-10
 Percent error, 100*(Cat-|An|)/(Cat+|An|)  =  -0.23
                               Iterations  =   3
                         Gamma iterations  =   2
                      Osmotic coefficient  =   0.99988
                         Density of water  =   0.99706
                                  Total H  = 1.110124e+02
                                  Total O  = 5.550622e+01

----------------------------Distribution of species----------------------------

                                                           MacInnes   MacInnes
	                               MacInnes    Log       Log         Log 
   Species          Molality    Activity  Molality  Activity     Gamma   cm3/mol

   OH-             1.005e-07   1.005e-07    -6.998    -6.998    -0.000     -4.46
   H+              1.000e-07   1.000e-07    -7.000    -7.000    -0.000      0.00
   H2O             5.551e+01   1.000e+00     1.744    -0.000     0.000     18.07

------------------------------Saturation indices-------------------------------

	Phase               SI   log IAP   log K(298 K,   1 atm)

	H2O(g)           -1.50     -0.00    1.50  H2O


-----------------------------------------
Beginning of batch-reaction calculations.
-----------------------------------------

Reaction step 1.

Using solution 1.	
Using pure phase assemblage 1.	
Using pressure 1.	

-------------------------------Phase assemblage--------------------------------

                                                      Moles in assemblage
Phase               SI  log IAP  log K(T, P)   Initial       Final       Delta

Halite           -0.00     1.58      1.58    1.000e+01   3.853e+00  -6.147e+00

-----------------------------Solution composition------------------------------

	Elements           Molality       Moles

	Cl                6.147e+00   6.147e+00
	Na                6.147e+00   6.147e+00

----------------------------Description of solution----------------------------

                                       pH  =   6.380      Charge balance
                                       pe  =   4.000      Adjusted to redox equilibrium
       Specific Conductance (uS/cm, 25 oC) = 446624
                          Density (g/cm3)  =   1.19723
                        Activity of water  =   0.752
                           Ionic strength  =   6.147e+00
                       Mass of water (kg)  =   1.000e+00
                 Total alkalinity (eq/kg)  =   4.618e-10
                    Total carbon (mol/kg)  =   0.000e+00
                       Total CO2 (mol/kg)  =   0.000e+00
                      Temperature (deg C)  =  25.00
                  Electrical balance (eq)  =  -4.618e-10
 Percent error, 100*(Cat-|An|)/(Cat+|An|)  =  -0.00
                               Iterations  =  15
                         Gamma iterations  =   6
                      Osmotic coefficient  =   1.28522
                         Density of water  =   0.99706
                                  Total H  = 1.110124e+02
                                  Total O  = 5.550622e+01

----------------------------Distribution of species----------------------------

                                                           MacInnes   MacInnes
	                               MacInnes    Log       Log         Log 
   Species          Molality    Activity  Molality  Activity     Gamma   cm3/mol

   OH-             5.460e-08   1.812e-08    -7.263    -7.742    -0.479     -2.17
   H+              5.414e-08   4.170e-07    -7.267    -6.380     0.887      0.00
   H2O             5.551e+01   7.523e-01     1.744    -0.124     0.000     18.07
Cl            6.147e+00
   Cl-             6.147e+00   3.771e+00     0.789     0.576    -0.212     20.12
Na            6.147e+00
   Na+             6.147e+00   1.013e+01     0.789     1.006     0.217      1.41

------------------------------Saturation indices-------------------------------

	Phase               SI   log IAP   log K(298 K,   1 atm)

	H2O(g)           -1.63     -0.12    1.50  H2O
	Halite           -0.00      1.58    1.58  NaCl


Reaction step 2.

Using solution 1.	
Using pure phase assemblage 1.	
Using pressure 1.	

-------------------------------Phase assemblage--------------------------------

                                                      Moles in assemblage
Phase               SI  log IAP  log K(T, P)   Initial       Final       Delta

Halite           -0.00     1.59      1.59    1.000e+01   3.833e+00  -6.167e+00

-----------------------------Solution composition------------------------------

	Elements           Molality       Moles

	Cl                6.167e+00   6.167e+00
	Na                6.167e+00   6.167e+00

----------------------------Description of solution----------------------------

                                       pH  =   6.368      Charge balance
                                       pe  =   4.000      Adjusted to redox equilibrium
       Specific Conductance (uS/cm, 25 oC) = 448038
                          Density (g/cm3)  =   1.19979
                        Activity of water  =   0.751
                           Ionic strength  =   6.167e+00
                       Mass of water (kg)  =   1.000e+00
                 Total alkalinity (eq/kg)  =   4.618e-10
                    Total carbon (mol/kg)  =   0.000e+00
                       Total CO2 (mol/kg)  =   0.000e+00
                      Temperature (deg C)  =  25.00
                           Pressure (atm)  = 53.58
                  Electrical balance (eq)  =  -4.618e-10
 Percent error, 100*(Cat-|An|)/(Cat+|An|)  =  -0.00
                               Iterations  =  19
                         Gamma iterations  =   6
                      Osmotic coefficient  =   1.28689
                         Density of water  =   0.99706
                                  Total H  = 1.110124e+02
                                  Total O  = 5.550622e+01

----------------------------Distribution of species----------------------------

                                                           MacInnes   MacInnes
	                               MacInnes    Log       Log         Log 
   Species          Molality    Activity  Molality  Activity     Gamma   cm3/mol

   OH-             5.554e-08   1.841e-08    -7.255    -7.735    -0.480     -2.02
   H+              5.508e-08   4.281e-07    -7.259    -6.368     0.890      0.00
   H2O             5.551e+01   7.513e-01     1.744    -0.124     0.000     18.03
Cl            6.167e+00
   Cl-             6.167e+00   3.786e+00     0.790     0.578    -0.212     20.14
Na            6.167e+00
   Na+             6.167e+00   1.021e+01     0.790     1.009     0.219      1.44

------------------------------Saturation indices-------------------------------

	Phase               SI   log IAP   log K(298 K,  54 atm)

	H2O(g)           -1.61     -0.12    1.49  H2O
	Halite            0.00      1.59    1.59  NaCl


Reaction step 3.

Using solution 1.	
Using pure phase assemblage 1.	
Using pressure 1.	

-------------------------------Phase assemblage--------------------------------

                                                      Moles in assemblage
Phase               SI  log IAP  log K(T, P)   Initial       Final       Delta

Halite           -0.00     1.59      1.59    1.000e+01   3.814e+00  -6.186e+00

-----------------------------Solution composition------------------------------

	Elements           Molality       Moles

	Cl                6.186e+00   6.186e+00
	Na                6.186e+00   6.186e+00

----------------------------Description of solution----------------------------

                                       pH  =   6.357      Charge balance
                                       pe  =   4.000      Adjusted to redox equilibrium
       Specific Conductance (uS/cm, 25 oC) = 449423
                          Density (g/cm3)  =   1.20243
                        Activity of water  =   0.750
                           Ionic strength  =   6.186e+00
                       Mass of water (kg)  =   1.000e+00
                 Total alkalinity (eq/kg)  =   4.618e-10
                    Total carbon (mol/kg)  =   0.000e+00
                       Total CO2 (mol/kg)  =   0.000e+00
                      Temperature (deg C)  =  25.00
                           Pressure (atm)  = 106.16
                  Electrical balance (eq)  =  -4.618e-10
 Percent error, 100*(Cat-|An|)/(Cat+|An|)  =  -0.00
                               Iterations  =  17
                         Gamma iterations  =   6
                      Osmotic coefficient  =   1.28853
                         Density of water  =   0.99706
                                  Total H  = 1.110124e+02
                                  Total O  = 5.550622e+01

----------------------------Distribution of species----------------------------

                                                           MacInnes   MacInnes
	                               MacInnes    Log       Log         Log 
   Species          Molality    Activity  Molality  Activity     Gamma   cm3/mol

   OH-             5.649e-08   1.869e-08    -7.248    -7.728    -0.480     -1.86
   H+              5.603e-08   4.392e-07    -7.252    -6.357     0.894      0.00
   H2O             5.551e+01   7.504e-01     1.744    -0.125     0.000     17.99
Cl            6.186e+00
   Cl-             6.186e+00   3.801e+00     0.791     0.580    -0.212     20.17
Na            6.186e+00
   Na+             6.186e+00   1.028e+01     0.791     1.012     0.221      1.48

------------------------------Saturation indices-------------------------------

	Phase               SI   log IAP   log K(298 K, 106 atm)

	H2O(g)           -1.59     -0.12    1.47  H2O
	Halite           -0.00      1.59    1.59  NaCl


Reaction step 4.

Using solution 1.	
Using pure phase assemblage 1.	
Using pressure 1.	

-------------------------------Phase assemblage--------------------------------

                                                      Moles in assemblage
Phase               SI  log IAP  log K(T, P)   Initial       Final       Delta

Halite           -0.00     1.60      1.60    1.000e+01   3.795e+00  -6.205e+00

-----------------------------Solution composition------------------------------

	Elements           Molality       Moles

	Cl                6.205e+00   6.205e+00
	Na                6.205e+00   6.205e+00

----------------------------Description of solution----------------------------

                                       pH  =   6.346      Charge balance
                                       pe  =   4.000      Adjusted to redox equilibrium
       Specific Conductance (uS/cm, 25 oC) = 450778
                          Density (g/cm3)  =   1.20502
                        Activity of water  =   0.749
                           Ionic strength  =   6.205e+00
                       Mass of water (kg)  =   1.000e+00
                 Total alkalinity (eq/kg)  =   4.618e-10
                    Total carbon (mol/kg)  =   0.000e+00
                       Total CO2 (mol/kg)  =   0.000e+00
                      Temperature (deg C)  =  25.00
                           Pressure (atm)  = 158.74
                  Electrical balance (eq)  =  -4.618e-10
 Percent error, 100*(Cat-|An|)/(Cat+|An|)  =  -0.00
                               Iterations  =  16
                         Gamma iterations  =   6
                      Osmotic coefficient  =   1.29013
                         Density of water  =   0.99706
                                  Total H  = 1.110124e+02
                                  Total O  = 5.550622e+01

----------------------------Distribution of species----------------------------

                                                           MacInnes   MacInnes
	                               MacInnes    Log       Log         Log 
   Species          Molality    Activity  Molality  Activity     Gamma   cm3/mol

   OH-             5.743e-08   1.898e-08    -7.241    -7.722    -0.481     -1.71
   H+              5.697e-08   4.504e-07    -7.244    -6.346     0.898      0.00
   H2O             5.551e+01   7.494e-01     1.744    -0.125     0.000     17.95
Cl            6.205e+00
   Cl-             6.205e+00   3.815e+00     0.793     0.581    -0.211     20.20
Na            6.205e+00
   Na+             6.205e+00   1.036e+01     0.793     1.015     0.223      1.51

------------------------------Saturation indices-------------------------------

	Phase               SI   log IAP   log K(298 K, 159 atm)

	H2O(g)           -1.58     -0.13    1.45  H2O
	Halite            0.00      1.60    1.60  NaCl


Reaction step 5.

Using solution 1.	
Using pure phase assemblage 1.	
Using pressure 1.	

-------------------------------Phase assemblage--------------------------------

                                                      Moles in assemblage
Phase               SI  log IAP  log K(T, P)   Initial       Final       Delta

Halite           -0.00     1.60      1.60    1.000e+01   3.777e+00  -6.223e+00

-----------------------------Solution composition------------------------------

	Elements           Molality       Moles

	Cl                6.223e+00   6.223e+00
	Na                6.223e+00   6.223e+00

----------------------------Description of solution----------------------------

                                       pH  =   6.336      Charge balance
                                       pe  =   4.000      Adjusted to redox equilibrium
       Specific Conductance (uS/cm, 25 oC) = 452101
                          Density (g/cm3)  =   1.20756
                        Activity of water  =   0.749
                           Ionic strength  =   6.223e+00
                       Mass of water (kg)  =   1.000e+00
                 Total alkalinity (eq/kg)  =   4.618e-10
                    Total carbon (mol/kg)  =   0.000e+00
                       Total CO2 (mol/kg)  =   0.000e+00
                      Temperature (deg C)  =  25.00
                           Pressure (atm)  = 211.32
                  Electrical balance (eq)  =  -4.618e-10
 Percent error, 100*(Cat-|An|)/(Cat+|An|)  =  -0.00
                               Iterations  =  16
                         Gamma iterations  =   6
                      Osmotic coefficient  =   1.29170
                         Density of water  =   0.99706
                                  Total H  = 1.110124e+02
                                  Total O  = 5.550622e+01

----------------------------Distribution of species----------------------------

                                                           MacInnes   MacInnes
	                               MacInnes    Log       Log         Log 
   Species          Molality    Activity  Molality  Activity     Gamma   cm3/mol

   OH-             5.837e-08   1.926e-08    -7.234    -7.715    -0.482     -1.55
   H+              5.791e-08   4.616e-07    -7.237    -6.336     0.901      0.00
   H2O             5.551e+01   7.485e-01     1.744    -0.126     0.000     17.90
Cl            6.223e+00
   Cl-             6.223e+00   3.829e+00     0.794     0.583    -0.211     20.23
Na            6.223e+00
   Na+             6.223e+00   1.043e+01     0.794     1.018     0.224      1.54

------------------------------Saturation indices-------------------------------

	Phase               SI   log IAP   log K(298 K, 211 atm)

	H2O(g)           -1.56     -0.13    1.44  H2O
	Halite            0.00      1.60    1.60  NaCl


Reaction step 6.

Using solution 1.	
Using pure phase assemblage 1.	
Using pressure 1.	

-------------------------------Phase assemblage--------------------------------

                                                      Moles in assemblage
Phase               SI  log IAP  log K(T, P)   Initial       Final       Delta

Halite           -0.00     1.61      1.61    1.000e+01   3.759e+00  -6.241e+00

-----------------------------Solution composition------------------------------

	Elements           Molality       Moles

	Cl                6.241e+00   6.241e+00
	Na                6.241e+00   6.241e+00

----------------------------Description of solution----------------------------

                                       pH  =   6.325      Charge balance
                                       pe  =   4.000      Adjusted to redox equilibrium
       Specific Conductance (uS/cm, 25 oC) = 453391
                          Density (g/cm3)  =   1.21005
                        Activity of water  =   0.748
                           Ionic strength  =   6.241e+00
                       Mass of water (kg)  =   1.000e+00
                 Total alkalinity (eq/kg)  =   4.618e-10
                    Total carbon (mol/kg)  =   0.000e+00
                       Total CO2 (mol/kg)  =   0.000e+00
                      Temperature (deg C)  =  25.00
                           Pressure (atm)  = 263.89
                  Electrical balance (eq)  =  -4.618e-10
 Percent error, 100*(Cat-|An|)/(Cat+|An|)  =  -0.00
                               Iterations  =  18
                         Gamma iterations  =   6
                      Osmotic coefficient  =   1.29323
                         Density of water  =   0.99706
                                  Total H  = 1.110124e+02
                                  Total O  = 5.550622e+01

----------------------------Distribution of species----------------------------

                                                           MacInnes   MacInnes
	                               MacInnes    Log       Log         Log 
   Species          Molality    Activity  Molality  Activity     Gamma   cm3/mol

   OH-             5.931e-08   1.954e-08    -7.227    -7.709    -0.482     -1.40
   H+              5.885e-08   4.728e-07    -7.230    -6.325     0.905      0.00
   H2O             5.551e+01   7.476e-01     1.744    -0.126     0.000     17.86
Cl            6.241e+00
   Cl-             6.241e+00   3.842e+00     0.795     0.585    -0.211     20.26
Na            6.241e+00
   Na+             6.241e+00   1.051e+01     0.795     1.021     0.226      1.58

------------------------------Saturation indices-------------------------------

	Phase               SI   log IAP   log K(298 K, 264 atm)

	H2O(g)           -1.55     -0.13    1.42  H2O
	Halite            0.00      1.61    1.61  NaCl


Reaction step 7.

Using solution 1.	
Using pure phase assemblage 1.	
Using pressure 1.	

-------------------------------Phase assemblage--------------------------------

                                                      Moles in assemblage
Phase               SI  log IAP  log K(T, P)   Initial       Final       Delta

Halite           -0.00     1.61      1.61    1.000e+01   3.741e+00  -6.259e+00

-----------------------------Solution composition------------------------------

	Elements           Molality       Moles

	Cl                6.259e+00   6.259e+00
	Na                6.259e+00   6.259e+00

----------------------------Description of solution----------------------------

                                       pH  =   6.315      Charge balance
                                       pe  =   4.000      Adjusted to redox equilibrium
       Specific Conductance (uS/cm, 25 oC) = 454649
                          Density (g/cm3)  =   1.21249
                        Activity of water  =   0.747
                           Ionic strength  =   6.259e+00
                       Mass of water (kg)  =   1.000e+00
                 Total alkalinity (eq/kg)  =   4.618e-10
                    Total carbon (mol/kg)  =   0.000e+00
                       Total CO2 (mol/kg)  =   0.000e+00
                      Temperature (deg C)  =  25.00
                           Pressure (atm)  = 316.47
                  Electrical balance (eq)  =  -4.618e-10
 Percent error, 100*(Cat-|An|)/(Cat+|An|)  =  -0.00
                               Iterations  =  18
                         Gamma iterations  =   6
                      Osmotic coefficient  =   1.29471
                         Density of water  =   0.99706
                                  Total H  = 1.110124e+02
                                  Total O  = 5.550622e+01

----------------------------Distribution of species----------------------------

                                                           MacInnes   MacInnes
	                               MacInnes    Log       Log         Log 
   Species          Molality    Activity  Molality  Activity     Gamma   cm3/mol

   OH-             6.024e-08   1.982e-08    -7.220    -7.703    -0.483     -1.24
   H+              5.978e-08   4.841e-07    -7.223    -6.315     0.908      0.00
   H2O             5.551e+01   7.468e-01     1.744    -0.127     0.000     17.82
Cl            6.259e+00
   Cl-             6.259e+00   3.856e+00     0.797     0.586    -0.210     20.29
Na            6.259e+00
   Na+             6.259e+00   1.058e+01     0.797     1.024     0.228      1.61

------------------------------Saturation indices-------------------------------

	Phase               SI   log IAP   log K(298 K, 316 atm)

	H2O(g)           -1.53     -0.13    1.40  H2O
	Halite            0.00      1.61    1.61  NaCl


Reaction step 8.

Using solution 1.	
Using pure phase assemblage 1.	
Using pressure 1.	

-------------------------------Phase assemblage--------------------------------

                                                      Moles in assemblage
Phase               SI  log IAP  log K(T, P)   Initial       Final       Delta

Halite           -0.00     1.61      1.62    1.000e+01   3.724e+00  -6.276e+00

-----------------------------Solution composition------------------------------

	Elements           Molality       Moles

	Cl                6.276e+00   6.276e+00
	Na                6.276e+00   6.276e+00

----------------------------Description of solution----------------------------

                                       pH  =   6.305      Charge balance
                                       pe  =   4.000      Adjusted to redox equilibrium
       Specific Conductance (uS/cm, 25 oC) = 455873
                          Density (g/cm3)  =   1.21488
                        Activity of water  =   0.746
                           Ionic strength  =   6.276e+00
                       Mass of water (kg)  =   1.000e+00
                 Total alkalinity (eq/kg)  =   4.618e-10
                    Total carbon (mol/kg)  =   0.000e+00
                       Total CO2 (mol/kg)  =   0.000e+00
                      Temperature (deg C)  =  25.00
                           Pressure (atm)  = 369.05
                  Electrical balance (eq)  =  -4.618e-10
 Percent error, 100*(Cat-|An|)/(Cat+|An|)  =  -0.00
                               Iterations  =  19
                         Gamma iterations  =   6
                      Osmotic coefficient  =   1.29616
                         Density of water  =   0.99706
                                  Total H  = 1.110124e+02
                                  Total O  = 5.550622e+01

----------------------------Distribution of species----------------------------

                                                           MacInnes   MacInnes
	                               MacInnes    Log       Log         Log 
   Species          Molality    Activity  Molality  Activity     Gamma   cm3/mol

   OH-             6.117e-08   2.010e-08    -7.213    -7.697    -0.483     -1.09
   H+              6.070e-08   4.953e-07    -7.217    -6.305     0.912      0.00
   H2O             5.551e+01   7.459e-01     1.744    -0.127     0.000     17.78
Cl            6.276e+00
   Cl-             6.276e+00   3.868e+00     0.798     0.588    -0.210     20.33
Na            6.276e+00
   Na+             6.276e+00   1.065e+01     0.798     1.027     0.230      1.65

------------------------------Saturation indices-------------------------------

	Phase               SI   log IAP   log K(298 K, 369 atm)

	H2O(g)           -1.51     -0.13    1.39  H2O
	Halite            0.00      1.61    1.61  NaCl


Reaction step 9.

Using solution 1.	
Using pure phase assemblage 1.	
Using pressure 1.	

-------------------------------Phase assemblage--------------------------------

                                                      Moles in assemblage
Phase               SI  log IAP  log K(T, P)   Initial       Final       Delta

Halite           -0.00     1.62      1.62    1.000e+01   3.707e+00  -6.293e+00

-----------------------------Solution composition------------------------------

	Elements           Molality       Moles

	Cl                6.293e+00   6.293e+00
	Na                6.293e+00   6.293e+00

----------------------------Description of solution----------------------------

                                       pH  =   6.295      Charge balance
                                       pe  =   4.000      Adjusted to redox equilibrium
       Specific Conductance (uS/cm, 25 oC) = 457063
                          Density (g/cm3)  =   1.21723
                        Activity of water  =   0.745
                           Ionic strength  =   6.293e+00
                       Mass of water (kg)  =   1.000e+00
                 Total alkalinity (eq/kg)  =   4.618e-10
                    Total carbon (mol/kg)  =   0.000e+00
                       Total CO2 (mol/kg)  =   0.000e+00
                      Temperature (deg C)  =  25.00
                           Pressure (atm)  = 421.63
                  Electrical balance (eq)  =  -4.618e-10
 Percent error, 100*(Cat-|An|)/(Cat+|An|)  =  -0.00
                               Iterations  =  19
                         Gamma iterations  =   6
                      Osmotic coefficient  =   1.29757
                         Density of water  =   0.99706
                                  Total H  = 1.110124e+02
                                  Total O  = 5.550622e+01

----------------------------Distribution of species----------------------------

                                                           MacInnes   MacInnes
	                               MacInnes    Log       Log         Log 
   Species          Molality    Activity  Molality  Activity     Gamma   cm3/mol

   OH-             6.209e-08   2.037e-08    -7.207    -7.691    -0.484     -0.93
   H+              6.163e-08   5.066e-07    -7.210    -6.295     0.915      0.00
   H2O             5.551e+01   7.451e-01     1.744    -0.128     0.000     17.75
Cl            6.293e+00
   Cl-             6.293e+00   3.881e+00     0.799     0.589    -0.210     20.36
Na            6.293e+00
   Na+             6.293e+00   1.072e+01     0.799     1.030     0.231      1.68

------------------------------Saturation indices-------------------------------

	Phase               SI   log IAP   log K(298 K, 422 atm)

	H2O(g)           -1.50     -0.13    1.37  H2O
	Halite           -0.00      1.62    1.62  NaCl


Reaction step 10.

Using solution 1.	
Using pure phase assemblage 1.	
Using pressure 1.	

-------------------------------Phase assemblage--------------------------------

                                                      Moles in assemblage
Phase               SI  log IAP  log K(T, P)   Initial       Final       Delta

Halite           -0.00     1.62      1.62    1.000e+01   3.691e+00  -6.309e+00

-----------------------------Solution composition------------------------------

	Elements           Molality       Moles

	Cl                6.309e+00   6.309e+00
	Na                6.309e+00   6.309e+00

----------------------------Description of solution----------------------------

                                       pH  =   6.286      Charge balance
                                       pe  =   4.000      Adjusted to redox equilibrium
       Specific Conductance (uS/cm, 25 oC) = 458217
                          Density (g/cm3)  =   1.21952
                        Activity of water  =   0.744
                           Ionic strength  =   6.309e+00
                       Mass of water (kg)  =   1.000e+00
                 Total alkalinity (eq/kg)  =   4.618e-10
                    Total carbon (mol/kg)  =   0.000e+00
                       Total CO2 (mol/kg)  =   0.000e+00
                      Temperature (deg C)  =  25.00
                           Pressure (atm)  = 474.21
                  Electrical balance (eq)  =  -4.618e-10
 Percent error, 100*(Cat-|An|)/(Cat+|An|)  =  -0.00
                               Iterations  =  19
                         Gamma iterations  =   6
                      Osmotic coefficient  =   1.29893
                         Density of water  =   0.99706
                                  Total H  = 1.110124e+02
                                  Total O  = 5.550622e+01

----------------------------Distribution of species----------------------------

                                                           MacInnes   MacInnes
	                               MacInnes    Log       Log         Log 
   Species          Molality    Activity  Molality  Activity     Gamma   cm3/mol

   OH-             6.300e-08   2.065e-08    -7.201    -7.685    -0.485     -0.77
   H+              6.254e-08   5.178e-07    -7.204    -6.286     0.918      0.00
   H2O             5.551e+01   7.443e-01     1.744    -0.128     0.000     17.71
Cl            6.309e+00
   Cl-             6.309e+00   3.893e+00     0.800     0.590    -0.210     20.39
Na            6.309e+00
   Na+             6.309e+00   1.078e+01     0.800     1.033     0.233      1.72

------------------------------Saturation indices-------------------------------

	Phase               SI   log IAP   log K(298 K, 474 atm)

	H2O(g)           -1.48     -0.13    1.35  H2O
	Halite            0.00      1.62    1.62  NaCl


Reaction step 11.

Using solution 1.	
Using pure phase assemblage 1.	
Using pressure 1.	

-------------------------------Phase assemblage--------------------------------

                                                      Moles in assemblage
Phase               SI  log IAP  log K(T, P)   Initial       Final       Delta

Halite           -0.00     1.63      1.63    1.000e+01   3.676e+00  -6.324e+00

-----------------------------Solution composition------------------------------

	Elements           Molality       Moles

	Cl                6.324e+00   6.324e+00
	Na                6.324e+00   6.324e+00

----------------------------Description of solution----------------------------

                                       pH  =   6.277      Charge balance
                                       pe  =   4.000      Adjusted to redox equilibrium
       Specific Conductance (uS/cm, 25 oC) = 459335
                          Density (g/cm3)  =   1.22177
                        Activity of water  =   0.744
                           Ionic strength  =   6.324e+00
                       Mass of water (kg)  =   1.000e+00
                 Total alkalinity (eq/kg)  =   4.618e-10
                    Total carbon (mol/kg)  =   0.000e+00
                       Total CO2 (mol/kg)  =   0.000e+00
                      Temperature (deg C)  =  25.00
                           Pressure (atm)  = 526.79
                  Electrical balance (eq)  =  -4.618e-10
 Percent error, 100*(Cat-|An|)/(Cat+|An|)  =  -0.00
                               Iterations  =  19
                         Gamma iterations  =   6
                      Osmotic coefficient  =   1.30025
                         Density of water  =   0.99706
                                  Total H  = 1.110124e+02
                                  Total O  = 5.550622e+01

----------------------------Distribution of species----------------------------

                                                           MacInnes   MacInnes
	                               MacInnes    Log       Log         Log 
   Species          Molality    Activity  Molality  Activity     Gamma   cm3/mol

   OH-             6.391e-08   2.092e-08    -7.194    -7.679    -0.485     -0.61
   H+              6.345e-08   5.290e-07    -7.198    -6.277     0.921      0.00
   H2O             5.551e+01   7.436e-01     1.744    -0.129     0.000     17.67
Cl            6.324e+00
   Cl-             6.324e+00   3.905e+00     0.801     0.592    -0.209     20.42
Na            6.324e+00
   Na+             6.324e+00   1.085e+01     0.801     1.035     0.234      1.75

------------------------------Saturation indices-------------------------------

	Phase               SI   log IAP   log K(298 K, 527 atm)

	H2O(g)           -1.47     -0.13    1.34  H2O
	Halite           -0.00      1.63    1.63  NaCl


Reaction step 12.

Using solution 1.	
Using pure phase assemblage 1.	
Using pressure 1.	

-------------------------------Phase assemblage--------------------------------

                                                      Moles in assemblage
Phase               SI  log IAP  log K(T, P)   Initial       Final       Delta

Halite           -0.00     1.63      1.63    1.000e+01   3.661e+00  -6.339e+00

-----------------------------Solution composition------------------------------

	Elements           Molality       Moles

	Cl                6.339e+00   6.339e+00
	Na                6.339e+00   6.339e+00

----------------------------Description of solution----------------------------

                                       pH  =   6.267      Charge balance
                                       pe  =   4.000      Adjusted to redox equilibrium
       Specific Conductance (uS/cm, 25 oC) = 460417
                          Density (g/cm3)  =   1.22397
                        Activity of water  =   0.743
                           Ionic strength  =   6.339e+00
                       Mass of water (kg)  =   1.000e+00
                 Total alkalinity (eq/kg)  =   4.618e-10
                    Total carbon (mol/kg)  =   0.000e+00
                       Total CO2 (mol/kg)  =   0.000e+00
                      Temperature (deg C)  =  25.00
                           Pressure (atm)  = 579.37
                  Electrical balance (eq)  =  -4.618e-10
 Percent error, 100*(Cat-|An|)/(Cat+|An|)  =  -0.00
                               Iterations  =  21
                         Gamma iterations  =   6
                      Osmotic coefficient  =   1.30153
                         Density of water  =   0.99706
                                  Total H  = 1.110124e+02
                                  Total O  = 5.550622e+01

----------------------------Distribution of species----------------------------

                                                           MacInnes   MacInnes
	                               MacInnes    Log       Log         Log 
   Species          Molality    Activity  Molality  Activity     Gamma   cm3/mol

   OH-             6.482e-08   2.119e-08    -7.188    -7.674    -0.486     -0.46
   H+              6.436e-08   5.402e-07    -7.191    -6.267     0.924      0.00
   H2O             5.551e+01   7.428e-01     1.744    -0.129     0.000     17.63
Cl            6.339e+00
   Cl-             6.339e+00   3.916e+00     0.802     0.593    -0.209     20.46
Na            6.339e+00
   Na+             6.339e+00   1.091e+01     0.802     1.038     0.236      1.79

------------------------------Saturation indices-------------------------------

	Phase               SI   log IAP   log K(298 K, 579 atm)

	H2O(g)           -1.45     -0.13    1.32  H2O
	Halite            0.00      1.63    1.63  NaCl


Reaction step 13.

Using solution 1.	
Using pure phase assemblage 1.	
Using pressure 1.	

-------------------------------Phase assemblage--------------------------------

                                                      Moles in assemblage
Phase               SI  log IAP  log K(T, P)   Initial       Final       Delta

Halite           -0.00     1.63      1.64    1.000e+01   3.646e+00  -6.354e+00

-----------------------------Solution composition------------------------------

	Elements           Molality       Moles

	Cl                6.354e+00   6.354e+00
	Na                6.354e+00   6.354e+00

----------------------------Description of solution----------------------------

                                       pH  =   6.259      Charge balance
                                       pe  =   4.000      Adjusted to redox equilibrium
       Specific Conductance (uS/cm, 25 oC) = 461459
                          Density (g/cm3)  =   1.22611
                        Activity of water  =   0.742
                           Ionic strength  =   6.354e+00
                       Mass of water (kg)  =   1.000e+00
                 Total alkalinity (eq/kg)  =   4.618e-10
                    Total carbon (mol/kg)  =   0.000e+00
                       Total CO2 (mol/kg)  =   0.000e+00
                      Temperature (deg C)  =  25.00
                           Pressure (atm)  = 631.95
                  Electrical balance (eq)  =  -4.618e-10
 Percent error, 100*(Cat-|An|)/(Cat+|An|)  =  -0.00
                               Iterations  =  22
                         Gamma iterations  =   6
                      Osmotic coefficient  =   1.30276
                         Density of water  =   0.99706
                                  Total H  = 1.110124e+02
                                  Total O  = 5.550622e+01

----------------------------Distribution of species----------------------------

                                                           MacInnes   MacInnes
	                               MacInnes    Log       Log         Log 
   Species          Molality    Activity  Molality  Activity     Gamma   cm3/mol

   OH-             6.571e-08   2.146e-08    -7.182    -7.668    -0.486     -0.30
   H+              6.525e-08   5.512e-07    -7.185    -6.259     0.927      0.00
   H2O             5.551e+01   7.421e-01     1.744    -0.130     0.000     17.60
Cl            6.354e+00
   Cl-             6.354e+00   3.927e+00     0.803     0.594    -0.209     20.49
Na            6.354e+00
   Na+             6.354e+00   1.097e+01     0.803     1.040     0.237      1.83

------------------------------Saturation indices-------------------------------

	Phase               SI   log IAP   log K(298 K, 632 atm)

	H2O(g)           -1.44     -0.13    1.31  H2O
	Halite           -0.00      1.63    1.63  NaCl


Reaction step 14.

Using solution 1.	
Using pure phase assemblage 1.	
Using pressure 1.	

-------------------------------Phase assemblage--------------------------------

                                                      Moles in assemblage
Phase               SI  log IAP  log K(T, P)   Initial       Final       Delta

Halite           -0.00     1.64      1.64    1.000e+01   3.632e+00  -6.368e+00

-----------------------------Solution composition------------------------------

	Elements           Molality       Moles

	Cl                6.368e+00   6.368e+00
	Na                6.368e+00   6.368e+00

----------------------------Description of solution----------------------------

                                       pH  =   6.250      Charge balance
                                       pe  =   4.000      Adjusted to redox equilibrium
       Specific Conductance (uS/cm, 25 oC) = 462469
                          Density (g/cm3)  =   1.22822
                        Activity of water  =   0.741
                           Ionic strength  =   6.368e+00
                       Mass of water (kg)  =   1.000e+00
                 Total alkalinity (eq/kg)  =   4.618e-10
                    Total carbon (mol/kg)  =   0.000e+00
                       Total CO2 (mol/kg)  =   0.000e+00
                      Temperature (deg C)  =  25.00
                           Pressure (atm)  = 684.53
                  Electrical balance (eq)  =  -4.618e-10
 Percent error, 100*(Cat-|An|)/(Cat+|An|)  =  -0.00
                               Iterations  =  20
                         Gamma iterations  =   6
                      Osmotic coefficient  =   1.30395
                         Density of water  =   0.99706
                                  Total H  = 1.110124e+02
                                  Total O  = 5.550622e+01

----------------------------Distribution of species----------------------------

                                                           MacInnes   MacInnes
	                               MacInnes    Log       Log         Log 
   Species          Molality    Activity  Molality  Activity     Gamma   cm3/mol

   OH-             6.660e-08   2.172e-08    -7.177    -7.663    -0.487     -0.14
   H+              6.614e-08   5.622e-07    -7.180    -6.250     0.929      0.00
   H2O             5.551e+01   7.414e-01     1.744    -0.130     0.000     17.56
Cl            6.368e+00
   Cl-             6.368e+00   3.938e+00     0.804     0.595    -0.209     20.52
Na            6.368e+00
   Na+             6.368e+00   1.103e+01     0.804     1.043     0.239      1.86

------------------------------Saturation indices-------------------------------

	Phase               SI   log IAP   log K(298 K, 685 atm)

	H2O(g)           -1.42     -0.13    1.29  H2O
	Halite           -0.00      1.64    1.64  NaCl


Reaction step 15.

Using solution 1.	
Using pure phase assemblage 1.	
Using pressure 1.	

-------------------------------Phase assemblage--------------------------------

                                                      Moles in assemblage
Phase               SI  log IAP  log K(T, P)   Initial       Final       Delta

Halite           -0.00     1.64      1.64    1.000e+01   3.619e+00  -6.381e+00

-----------------------------Solution composition------------------------------

	Elements           Molality       Moles

	Cl                6.381e+00   6.381e+00
	Na                6.381e+00   6.381e+00

----------------------------Description of solution----------------------------

                                       pH  =   6.242      Charge balance
                                       pe  =   4.000      Adjusted to redox equilibrium
       Specific Conductance (uS/cm, 25 oC) = 463437
                          Density (g/cm3)  =   1.23028
                        Activity of water  =   0.741
                           Ionic strength  =   6.381e+00
                       Mass of water (kg)  =   1.000e+00
                 Total alkalinity (eq/kg)  =   4.618e-10
                    Total carbon (mol/kg)  =   0.000e+00
                       Total CO2 (mol/kg)  =   0.000e+00
                      Temperature (deg C)  =  25.00
                           Pressure (atm)  = 737.11
                  Electrical balance (eq)  =  -4.618e-10
 Percent error, 100*(Cat-|An|)/(Cat+|An|)  =  -0.00
                               Iterations  =  20
                         Gamma iterations  =   6
                      Osmotic coefficient  =   1.30510
                         Density of water  =   0.99706
                                  Total H  = 1.110124e+02
                                  Total O  = 5.550622e+01

----------------------------Distribution of species----------------------------

                                                           MacInnes   MacInnes
	                               MacInnes    Log       Log         Log 
   Species          Molality    Activity  Molality  Activity     Gamma   cm3/mol

   OH-             6.748e-08   2.198e-08    -7.171    -7.658    -0.487      0.02
   H+              6.702e-08   5.732e-07    -7.174    -6.242     0.932      0.00
   H2O             5.551e+01   7.408e-01     1.744    -0.130     0.000     17.52
Cl            6.381e+00
   Cl-             6.381e+00   3.948e+00     0.805     0.596    -0.208     20.56
Na            6.381e+00
   Na+             6.381e+00   1.109e+01     0.805     1.045     0.240      1.90

------------------------------Saturation indices-------------------------------

	Phase               SI   log IAP   log K(298 K, 737 atm)

	H2O(g)           -1.40     -0.13    1.27  H2O
	Halite           -0.00      1.64    1.64  NaCl


Reaction step 16.

Using solution 1.	
Using pure phase assemblage 1.	
Using pressure 1.	

-------------------------------Phase assemblage--------------------------------

                                                      Moles in assemblage
Phase               SI  log IAP  log K(T, P)   Initial       Final       Delta

Halite           -0.00     1.64      1.65    1.000e+01   3.606e+00  -6.394e+00

-----------------------------Solution composition------------------------------

	Elements           Molality       Moles

	Cl                6.394e+00   6.394e+00
	Na                6.394e+00   6.394e+00

----------------------------Description of solution----------------------------

                                       pH  =   6.234      Charge balance
                                       pe  =   4.000      Adjusted to redox equilibrium
       Specific Conductance (uS/cm, 25 oC) = 464367
                          Density (g/cm3)  =   1.23228
                        Activity of water  =   0.740
                           Ionic strength  =   6.394e+00
                       Mass of water (kg)  =   1.000e+00
                 Total alkalinity (eq/kg)  =   4.618e-10
                    Total carbon (mol/kg)  =   0.000e+00
                       Total CO2 (mol/kg)  =   0.000e+00
                      Temperature (deg C)  =  25.00
                           Pressure (atm)  = 789.68
                  Electrical balance (eq)  =  -4.618e-10
 Percent error, 100*(Cat-|An|)/(Cat+|An|)  =  -0.00
                               Iterations  =  21
                         Gamma iterations  =   6
                      Osmotic coefficient  =   1.30619
                         Density of water  =   0.99706
                                  Total H  = 1.110124e+02
                                  Total O  = 5.550622e+01

----------------------------Distribution of species----------------------------

                                                           MacInnes   MacInnes
	                               MacInnes    Log       Log         Log 
   Species          Molality    Activity  Molality  Activity     Gamma   cm3/mol

   OH-             6.836e-08   2.225e-08    -7.165    -7.653    -0.488      0.18
   H+              6.789e-08   5.840e-07    -7.168    -6.234     0.935      0.00
   H2O             5.551e+01   7.401e-01     1.744    -0.131     0.000     17.49
Cl            6.394e+00
   Cl-             6.394e+00   3.958e+00     0.806     0.597    -0.208     20.59
Na            6.394e+00
   Na+             6.394e+00   1.115e+01     0.806     1.047     0.241      1.94

------------------------------Saturation indices-------------------------------

	Phase               SI   log IAP   log K(298 K, 790 atm)

	H2O(g)           -1.39     -0.13    1.26  H2O
	Halite            0.00      1.64    1.64  NaCl


Reaction step 17.

Using solution 1.	
Using pure phase assemblage 1.	
Using pressure 1.	

-------------------------------Phase assemblage--------------------------------

                                                      Moles in assemblage
Phase               SI  log IAP  log K(T, P)   Initial       Final       Delta

Halite           -0.00     1.65      1.65    1.000e+01   3.594e+00  -6.406e+00

-----------------------------Solution composition------------------------------

	Elements           Molality       Moles

	Cl                6.406e+00   6.406e+00
	Na                6.406e+00   6.406e+00

----------------------------Description of solution----------------------------

                                       pH  =   6.226      Charge balance
                                       pe  =   4.000      Adjusted to redox equilibrium
       Specific Conductance (uS/cm, 25 oC) = 465257
                          Density (g/cm3)  =   1.23424
                        Activity of water  =   0.740
                           Ionic strength  =   6.406e+00
                       Mass of water (kg)  =   1.000e+00
                 Total alkalinity (eq/kg)  =   4.618e-10
                    Total carbon (mol/kg)  =   0.000e+00
                       Total CO2 (mol/kg)  =   0.000e+00
                      Temperature (deg C)  =  25.00
                           Pressure (atm)  = 842.26
                  Electrical balance (eq)  =  -4.618e-10
 Percent error, 100*(Cat-|An|)/(Cat+|An|)  =  -0.00
                               Iterations  =  22
                         Gamma iterations  =   6
                      Osmotic coefficient  =   1.30724
                         Density of water  =   0.99706
                                  Total H  = 1.110124e+02
                                  Total O  = 5.550622e+01

----------------------------Distribution of species----------------------------

                                                           MacInnes   MacInnes
	                               MacInnes    Log       Log         Log 
   Species          Molality    Activity  Molality  Activity     Gamma   cm3/mol

   OH-             6.922e-08   2.250e-08    -7.160    -7.648    -0.488      0.34
   H+              6.876e-08   5.946e-07    -7.163    -6.226     0.937      0.00
   H2O             5.551e+01   7.395e-01     1.744    -0.131     0.000     17.45
Cl            6.406e+00
   Cl-             6.406e+00   3.968e+00     0.807     0.599    -0.208     20.63
Na            6.406e+00
   Na+             6.406e+00   1.120e+01     0.807     1.049     0.243      1.97

------------------------------Saturation indices-------------------------------

	Phase               SI   log IAP   log K(298 K, 842 atm)

	H2O(g)           -1.37     -0.13    1.24  H2O
	Halite            0.00      1.65    1.65  NaCl


Reaction step 18.

Using solution 1.	
Using pure phase assemblage 1.	
Using pressure 1.	

-------------------------------Phase assemblage--------------------------------

                                                      Moles in assemblage
Phase               SI  log IAP  log K(T, P)   Initial       Final       Delta

Halite           -0.00     1.65      1.65    1.000e+01   3.582e+00  -6.418e+00

-----------------------------Solution composition------------------------------

	Elements           Molality       Moles

	Cl                6.418e+00   6.418e+00
	Na                6.418e+00   6.418e+00

----------------------------Description of solution----------------------------

                                       pH  =   6.218      Charge balance
                                       pe  =   4.000      Adjusted to redox equilibrium
       Specific Conductance (uS/cm, 25 oC) = 466107
                          Density (g/cm3)  =   1.23615
                        Activity of water  =   0.739
                           Ionic strength  =   6.418e+00
                       Mass of water (kg)  =   1.000e+00
                 Total alkalinity (eq/kg)  =   4.618e-10
                    Total carbon (mol/kg)  =   0.000e+00
                       Total CO2 (mol/kg)  =   0.000e+00
                      Temperature (deg C)  =  25.00
                           Pressure (atm)  = 894.84
                  Electrical balance (eq)  =  -4.618e-10
 Percent error, 100*(Cat-|An|)/(Cat+|An|)  =  -0.00
                               Iterations  =  22
                         Gamma iterations  =   6
                      Osmotic coefficient  =   1.30825
                         Density of water  =   0.99706
                                  Total H  = 1.110124e+02
                                  Total O  = 5.550622e+01

----------------------------Distribution of species----------------------------

                                                           MacInnes   MacInnes
	                               MacInnes    Log       Log         Log 
   Species          Molality    Activity  Molality  Activity     Gamma   cm3/mol

   OH-             7.007e-08   2.276e-08    -7.154    -7.643    -0.488      0.50
   H+              6.961e-08   6.052e-07    -7.157    -6.218     0.939      0.00
   H2O             5.551e+01   7.390e-01     1.744    -0.131     0.000     17.42
Cl            6.418e+00
   Cl-             6.418e+00   3.977e+00     0.807     0.600    -0.208     20.67
Na            6.418e+00
   Na+             6.418e+00   1.125e+01     0.807     1.051     0.244      2.01

------------------------------Saturation indices-------------------------------

	Phase               SI   log IAP   log K(298 K, 895 atm)

	H2O(g)           -1.36     -0.13    1.23  H2O
	Halite           -0.00      1.65    1.65  NaCl


Reaction step 19.

Using solution 1.	
Using pure phase assemblage 1.	
Using pressure 1.	

-------------------------------Phase assemblage--------------------------------

                                                      Moles in assemblage
Phase               SI  log IAP  log K(T, P)   Initial       Final       Delta

Halite           -0.00     1.65      1.65    1.000e+01   3.571e+00  -6.429e+00

-----------------------------Solution composition------------------------------

	Elements           Molality       Moles

	Cl                6.429e+00   6.429e+00
	Na                6.429e+00   6.429e+00

----------------------------Description of solution----------------------------

                                       pH  =   6.211      Charge balance
                                       pe  =   4.000      Adjusted to redox equilibrium
       Specific Conductance (uS/cm, 25 oC) = 466916
                          Density (g/cm3)  =   1.23802
                        Activity of water  =   0.738
                           Ionic strength  =   6.429e+00
                       Mass of water (kg)  =   1.000e+00
                 Total alkalinity (eq/kg)  =   4.618e-10
                    Total carbon (mol/kg)  =   0.000e+00
                       Total CO2 (mol/kg)  =   0.000e+00
                      Temperature (deg C)  =  25.00
                           Pressure (atm)  = 947.42
                  Electrical balance (eq)  =  -4.618e-10
 Percent error, 100*(Cat-|An|)/(Cat+|An|)  =  -0.00
                               Iterations  =  22
                         Gamma iterations  =   6
                      Osmotic coefficient  =   1.30920
                         Density of water  =   0.99706
                                  Total H  = 1.110124e+02
                                  Total O  = 5.550622e+01

----------------------------Distribution of species----------------------------

                                                           MacInnes   MacInnes
	                               MacInnes    Log       Log         Log 
   Species          Molality    Activity  Molality  Activity     Gamma   cm3/mol

   OH-             7.091e-08   2.301e-08    -7.149    -7.638    -0.489      0.66
   H+              7.045e-08   6.156e-07    -7.152    -6.211     0.941      0.00
   H2O             5.551e+01   7.384e-01     1.744    -0.132     0.000     17.39
Cl            6.429e+00
   Cl-             6.429e+00   3.985e+00     0.808     0.600    -0.208     20.70
Na            6.429e+00
   Na+             6.429e+00   1.130e+01     0.808     1.053     0.245      2.05

------------------------------Saturation indices-------------------------------

	Phase               SI   log IAP   log K(298 K, 947 atm)

	H2O(g)           -1.34     -0.13    1.21  H2O
	Halite           -0.00      1.65    1.65  NaCl


Reaction step 20.

Using solution 1.	
Using pure phase assemblage 1.	
Using pressure 1.	

-------------------------------Phase assemblage--------------------------------

                                                      Moles in assemblage
Phase               SI  log IAP  log K(T, P)   Initial       Final       Delta

Halite           -0.00     1.66      1.66    1.000e+01   3.560e+00  -6.440e+00

-----------------------------Solution composition------------------------------

	Elements           Molality       Moles

	Cl                6.440e+00   6.440e+00
	Na                6.440e+00   6.440e+00

----------------------------Description of solution----------------------------

                                       pH  =   6.204      Charge balance
                                       pe  =   4.000      Adjusted to redox equilibrium
       Specific Conductance (uS/cm, 25 oC) = 467685
                          Density (g/cm3)  =   1.23983
                        Activity of water  =   0.738
                           Ionic strength  =   6.440e+00
                       Mass of water (kg)  =   1.000e+00
                 Total alkalinity (eq/kg)  =   4.618e-10
                    Total carbon (mol/kg)  =   0.000e+00
                       Total CO2 (mol/kg)  =   0.000e+00
                      Temperature (deg C)  =  25.00
                           Pressure (atm)  = 1000.00
                  Electrical balance (eq)  =  -4.618e-10
 Percent error, 100*(Cat-|An|)/(Cat+|An|)  =  -0.00
                               Iterations  =  22
                         Gamma iterations  =   6
                      Osmotic coefficient  =   1.31011
                         Density of water  =   0.99706
                                  Total H  = 1.110124e+02
                                  Total O  = 5.550622e+01

----------------------------Distribution of species----------------------------

                                                           MacInnes   MacInnes
	                               MacInnes    Log       Log         Log 
   Species          Molality    Activity  Molality  Activity     Gamma   cm3/mol

   OH-             7.175e-08   2.326e-08    -7.144    -7.633    -0.489      0.82
   H+              7.129e-08   6.258e-07    -7.147    -6.204     0.943      0.00
   H2O             5.551e+01   7.379e-01     1.744    -0.132     0.000     17.35
Cl            6.440e+00
   Cl-             6.440e+00   3.993e+00     0.809     0.601    -0.208     20.74
Na            6.440e+00
   Na+             6.440e+00   1.134e+01     0.809     1.055     0.246      2.08

------------------------------Saturation indices-------------------------------

	Phase               SI   log IAP   log K(298 K, 1000 atm)

	H2O(g)           -1.33     -0.13    1.20  H2O
	Halite           -0.00      1.66    1.66  NaCl


------------------
End of simulation.
------------------

------------------------------------
Reading input data for simulation 2.
------------------------------------

-----------
End of run.
-----------

