WARNING: Database file from DATABASE keyword is used; command line argument ignored.
   Input file: NaCl_temp
  Output file: NaCl_temp.out
Database file: ../database/pitzer.dat

------------------
Reading data base.
------------------

	SOLUTION_MASTER_SPECIES
	SOLUTION_SPECIES
	PHASES
	PITZER
	EXCHANGE_MASTER_SPECIES
	EXCHANGE_SPECIES
	SURFACE_MASTER_SPECIES
	SURFACE_SPECIES
	END
------------------------------------
Reading input data for simulation 1.
------------------------------------

	DATABASE ../database/pitzer.dat
	PITZER
	b0
	  Na+  Cl-  7.552E-2  0  1.518  -6.257E-3  3.052E-6
WARNING: Redefinition of parameter, Na+ Cl-

	b1
	  Na+  Cl-  0.2771  -819.8  -5.793  1.358e-2  -4.281e-6
WARNING: Redefinition of parameter, Na+ Cl-

	c0
	  Na+  Cl-  1.454e-3   -93.29  0  -5.194e-4  3.282e-7  1.112e4  
WARNING: Redefinition of parameter, Na+ Cl-

	PHASES
	Halite
		NaCl  =  Cl- + Na+
		log_k	   1.570
		delta_h  1.37
		analytical_expression  -0.388  1.97e-2   511   -1.167  -4.88e4  -2.4432e-5
		vm 27.1
	SOLUTION 1
	EQUILIBRIUM_PHASES 1
	 Halite 0 20
	REACTION_TEMPERATURE 1
	25 50 75 100 125 150 175 200 225 250 275 300
	USER_GRAPH 1
	-chart_title "Halite solubility"
	-axis_titles "mol NaCl / kgw" "temperature / oC"
	10 data 6.162, 6.293, 6.465, 6.677, 6.948, 7.21, 7.582, 7.983, 8.465, 9.017, 9.668, 10.43
	20 dim c(20)
	30 for i = 1 to 12
	40   read c(i)
	50 next i
	60 plot_xy c(step_no), tc, line_width = 0, color = Red
	70 plot_xy tot("Na"), tc, symbol_size = 0, color = Red
	-end
	PRINT
	 status false
	END
-------------------------------------------
Beginning of initial solution calculations.
-------------------------------------------

Initial solution 1.	

-----------------------------Solution composition------------------------------

	Elements           Molality       Moles

	Pure water     

----------------------------Description of solution----------------------------

                                       pH  =   7.000    
                                       pe  =   4.000    
       Specific Conductance (uS/cm, 25 oC) = 0
                          Density (g/cm3)  =   0.99704
                               Volume (L)  =   1.00297
                        Activity of water  =   1.000
                           Ionic strength  =   1.006e-07
                       Mass of water (kg)  =   1.000e+00
                 Total alkalinity (eq/kg)  =   1.216e-09
                    Total carbon (mol/kg)  =   0.000e+00
                       Total CO2 (mol/kg)  =   0.000e+00
                      Temperature (deg C)  =  25.00
                  Electrical balance (eq)  =  -1.216e-09
 Percent error, 100*(Cat-|An|)/(Cat+|An|)  =  -0.60
                               Iterations  =   3
                         Gamma iterations  =   2
                      Osmotic coefficient  =   0.99988
                         Density of water  =   0.99704
                                  Total H  = 1.110124e+02
                                  Total O  = 5.550622e+01

----------------------------Distribution of species----------------------------

                                                    MacInnes  MacInnes
                                MacInnes       Log       Log       Log    mole V
   Species          Molality    Activity  Molality  Activity     Gamma   cm3/mol

   OH-             1.013e-07   1.012e-07    -6.995    -6.995    -0.000     -4.14
   H+              1.000e-07   1.000e-07    -7.000    -7.000    -0.000      0.00
   H2O             5.551e+01   1.000e+00     1.744    -0.000     0.000     18.07

------------------------------Saturation indices-------------------------------

  Phase               SI** log IAP   log K(298 K,   1 atm)

  H2O(g)           -1.50     -0.00    1.50  H2O

**For a gas, SI = log10(fugacity). Fugacity = pressure * phi / 1 atm.
  For ideal gases, phi = 1.

-----------------------------------------
Beginning of batch-reaction calculations.
-----------------------------------------

Reaction step 1.

Using solution 1.	
Using pure phase assemblage 1.	
Using temperature 1.	

-------------------------------Phase assemblage--------------------------------

                                                      Moles in assemblage
Phase               SI  log IAP  log K(T, P)   Initial       Final       Delta

Halite            0.00     1.59      1.59    2.000e+01   1.384e+01  -6.163e+00

-----------------------------Solution composition------------------------------

	Elements           Molality       Moles

	Cl                6.163e+00   6.163e+00
	Na                6.163e+00   6.163e+00

----------------------------Description of solution----------------------------

                                       pH  =   6.378      Charge balance
                                       pe  =   4.000      Adjusted to redox equilibrium
       Specific Conductance (uS/cm, 25 oC) = 448332
                          Density (g/cm3)  =   1.19851
                               Volume (L)  =   1.13489
                        Activity of water  =   0.751
                           Ionic strength  =   6.163e+00
                       Mass of water (kg)  =   1.000e+00
                 Total alkalinity (eq/kg)  =   1.216e-09
                    Total carbon (mol/kg)  =   0.000e+00
                       Total CO2 (mol/kg)  =   0.000e+00
                      Temperature (deg C)  =  25.00
                  Electrical balance (eq)  =  -1.217e-09
 Percent error, 100*(Cat-|An|)/(Cat+|An|)  =  -0.00
                               Iterations  =  16
                         Gamma iterations  =   5
                      Osmotic coefficient  =   1.28834
                         Density of water  =   0.99704
                                  Total H  = 1.110124e+02
                                  Total O  = 5.550622e+01

----------------------------Distribution of species----------------------------

                                                    MacInnes  MacInnes
                                MacInnes       Log       Log       Log    mole V
   Species          Molality    Activity  Molality  Activity     Gamma   cm3/mol

   OH-             5.496e-08   1.815e-08    -7.260    -7.741    -0.481      4.92
   H+              5.374e-08   4.188e-07    -7.270    -6.378     0.892      0.00
   H2O             5.551e+01   7.512e-01     1.744    -0.124     0.000     18.07
Cl            6.163e+00
   Cl-             6.163e+00   3.789e+00     0.790     0.579    -0.211     20.12
Na            6.163e+00
   Na+             6.163e+00   1.029e+01     0.790     1.012     0.223      1.29

------------------------------Saturation indices-------------------------------

  Phase               SI** log IAP   log K(298 K,   1 atm)

  H2O(g)           -1.63     -0.12    1.50  H2O
  Halite            0.00      1.59    1.59  NaCl

**For a gas, SI = log10(fugacity). Fugacity = pressure * phi / 1 atm.
  For ideal gases, phi = 1.

Reaction step 2.

Using solution 1.	
Using pure phase assemblage 1.	
Using temperature 1.	

-------------------------------Phase assemblage--------------------------------

                                                      Moles in assemblage
Phase               SI  log IAP  log K(T, P)   Initial       Final       Delta

Halite            0.00     1.61      1.61    2.000e+01   1.370e+01  -6.298e+00

-----------------------------Solution composition------------------------------

	Elements           Molality       Moles

	Cl                6.298e+00   6.298e+00
	Na                6.298e+00   6.298e+00

----------------------------Description of solution----------------------------

                                       pH  =   6.044      Charge balance
                                       pe  =   4.000      Adjusted to redox equilibrium
       Specific Conductance (uS/cm, 50 oC) = 787726
                          Density (g/cm3)  =   1.18852
                               Volume (L)  =   1.15105
                        Activity of water  =   0.748
                           Ionic strength  =   6.298e+00
                       Mass of water (kg)  =   1.000e+00
                 Total alkalinity (eq/kg)  =   1.216e-09
                    Total carbon (mol/kg)  =   0.000e+00
                       Total CO2 (mol/kg)  =   0.000e+00
                      Temperature (deg C)  =  50.00
                  Electrical balance (eq)  =  -1.217e-09
 Percent error, 100*(Cat-|An|)/(Cat+|An|)  =  -0.00
                               Iterations  =  14
                         Gamma iterations  =   5
                      Osmotic coefficient  =   1.28139
                         Density of water  =   0.98803
                                  Total H  = 1.110124e+02
                                  Total O  = 5.550622e+01

----------------------------Distribution of species----------------------------

                                                    MacInnes  MacInnes
                                MacInnes       Log       Log       Log    mole V
   Species          Molality    Activity  Molality  Activity     Gamma   cm3/mol

   OH-             1.375e-07   4.526e-08    -6.862    -7.344    -0.483      6.02
   H+              1.363e-07   9.043e-07    -6.865    -6.044     0.822      0.00
   H2O             5.551e+01   7.477e-01     1.744    -0.126     0.000     18.23
Cl            6.298e+00
   Cl-             6.298e+00   4.153e+00     0.799     0.618    -0.181     20.44
Na            6.298e+00
   Na+             6.298e+00   9.859e+00     0.799     0.994     0.195      1.62

------------------------------Saturation indices-------------------------------

  Phase               SI** log IAP   log K(323 K,   1 atm)

  H2O(g)           -1.04     -0.13    0.92  H2O
  Halite            0.00      1.61    1.61  NaCl

**For a gas, SI = log10(fugacity). Fugacity = pressure * phi / 1 atm.
  For ideal gases, phi = 1.

Reaction step 3.

Using solution 1.	
Using pure phase assemblage 1.	
Using temperature 1.	

-------------------------------Phase assemblage--------------------------------

                                                      Moles in assemblage
Phase               SI  log IAP  log K(T, P)   Initial       Final       Delta

Halite            0.00     1.61      1.61    2.000e+01   1.354e+01  -6.463e+00

-----------------------------Solution composition------------------------------

	Elements           Molality       Moles

	Cl                6.463e+00   6.463e+00
	Na                6.463e+00   6.463e+00

----------------------------Description of solution----------------------------

                                       pH  =   5.797      Charge balance
                                       pe  =   4.000      Adjusted to redox equilibrium
       Specific Conductance (uS/cm, 75 oC) = 1229279
                          Density (g/cm3)  =   1.17861
                               Volume (L)  =   1.16892
                        Activity of water  =   0.744
                           Ionic strength  =   6.463e+00
                       Mass of water (kg)  =   1.000e+00
                 Total alkalinity (eq/kg)  =   1.216e-09
                    Total carbon (mol/kg)  =   0.000e+00
                       Total CO2 (mol/kg)  =   0.000e+00
                      Temperature (deg C)  =  75.00
                  Electrical balance (eq)  =  -1.216e-09
 Percent error, 100*(Cat-|An|)/(Cat+|An|)  =  -0.00
                               Iterations  =  14
                         Gamma iterations  =   5
                      Osmotic coefficient  =   1.26815
                         Density of water  =   0.97484
                                  Total H  = 1.110124e+02
                                  Total O  = 5.550622e+01

----------------------------Distribution of species----------------------------

                                                    MacInnes  MacInnes
                                MacInnes       Log       Log       Log    mole V
   Species          Molality    Activity  Molality  Activity     Gamma   cm3/mol

   OH-             2.875e-07   9.563e-08    -6.541    -7.019    -0.478      6.46
   H+              2.863e-07   1.597e-06    -6.543    -5.797     0.747      0.00
   H2O             5.551e+01   7.443e-01     1.744    -0.128     0.000     18.48
Cl            6.463e+00
   Cl-             6.463e+00   4.525e+00     0.810     0.656    -0.155     20.36
Na            6.463e+00
   Na+             6.463e+00   8.964e+00     0.810     0.952     0.142      1.78

------------------------------Saturation indices-------------------------------

  Phase               SI** log IAP   log K(348 K,   1 atm)

  H2O(g)           -0.55     -0.13    0.42  H2O
  Halite            0.00      1.61    1.61  NaCl

**For a gas, SI = log10(fugacity). Fugacity = pressure * phi / 1 atm.
  For ideal gases, phi = 1.

Reaction step 4.

Using solution 1.	
Using pure phase assemblage 1.	
Using temperature 1.	

-------------------------------Phase assemblage--------------------------------

                                                      Moles in assemblage
Phase               SI  log IAP  log K(T, P)   Initial       Final       Delta

Halite            0.00     1.58      1.58    2.000e+01   1.333e+01  -6.672e+00

-----------------------------Solution composition------------------------------

	Elements           Molality       Moles

	Cl                6.672e+00   6.672e+00
	Na                6.672e+00   6.672e+00

----------------------------Description of solution----------------------------

                                       pH  =   5.616      Charge balance
                                       pe  =   4.000      Adjusted to redox equilibrium
       Specific Conductance (uS/cm, 100 oC) = 1776456
                          Density (g/cm3)  =   1.16830
                               Volume (L)  =   1.18968
                        Activity of water  =   0.741
                           Ionic strength  =   6.672e+00
                       Mass of water (kg)  =   1.000e+00
                 Total alkalinity (eq/kg)  =   1.216e-09
                    Total carbon (mol/kg)  =   0.000e+00
                       Total CO2 (mol/kg)  =   0.000e+00
                      Temperature (deg C)  = 100.00
                  Electrical balance (eq)  =  -1.216e-09
 Percent error, 100*(Cat-|An|)/(Cat+|An|)  =  -0.00
                               Iterations  =  14
                         Gamma iterations  =   5
                      Osmotic coefficient  =   1.24536
                         Density of water  =   0.95835
                                  Total H  = 1.110124e+02
                                  Total O  = 5.550622e+01

----------------------------Distribution of species----------------------------

                                                    MacInnes  MacInnes
                                MacInnes       Log       Log       Log    mole V
   Species          Molality    Activity  Molality  Activity     Gamma   cm3/mol

   OH-             5.241e-07   1.770e-07    -6.281    -6.752    -0.471      6.52
   H+              5.229e-07   2.419e-06    -6.282    -5.616     0.665      0.00
   H2O             5.551e+01   7.413e-01     1.744    -0.130     0.000     18.80
Cl            6.672e+00
   Cl-             6.672e+00   4.907e+00     0.824     0.691    -0.133     20.03
Na            6.672e+00
   Na+             6.672e+00   7.724e+00     0.824     0.888     0.064      1.89

------------------------------Saturation indices-------------------------------

  Phase               SI** log IAP   log K(373 K,   1 atm)

  H2O(g)           -0.14     -0.13    0.00  H2O
  Halite            0.00      1.58    1.58  NaCl

**For a gas, SI = log10(fugacity). Fugacity = pressure * phi / 1 atm.
  For ideal gases, phi = 1.

Reaction step 5.

Using solution 1.	
Using pure phase assemblage 1.	
Using temperature 1.	

-------------------------------Phase assemblage--------------------------------

                                                      Moles in assemblage
Phase               SI  log IAP  log K(T, P)   Initial       Final       Delta

Halite            0.00     1.52      1.52    2.000e+01   1.307e+01  -6.929e+00

-----------------------------Solution composition------------------------------

	Elements           Molality       Moles

	Cl                6.929e+00   6.929e+00
	Na                6.929e+00   6.929e+00

----------------------------Description of solution----------------------------

                                       pH  =   5.488      Charge balance
                                       pe  =   4.000      Adjusted to redox equilibrium
       Specific Conductance (uS/cm, 125 oC) = 2127725
                          Density (g/cm3)  =   1.15730
                               Volume (L)  =   1.21400
                        Activity of water  =   0.739
                           Ionic strength  =   6.929e+00
                       Mass of water (kg)  =   1.000e+00
                 Total alkalinity (eq/kg)  =   1.216e-09
                    Total carbon (mol/kg)  =   0.000e+00
                       Total CO2 (mol/kg)  =   0.000e+00
                      Temperature (deg C)  = 125.00
                           Pressure (atm)  =  1.69
                  Electrical balance (eq)  =  -1.217e-09
 Percent error, 100*(Cat-|An|)/(Cat+|An|)  =  -0.00
                               Iterations  =  15
                         Gamma iterations  =   5
                      Osmotic coefficient  =   1.21172
                         Density of water  =   0.93903
                                  Total H  = 1.110124e+02
                                  Total O  = 5.550622e+01

----------------------------Distribution of species----------------------------

                                                    MacInnes  MacInnes
                                MacInnes       Log       Log       Log    mole V
   Species          Molality    Activity  Molality  Activity     Gamma   cm3/mol

   OH-             8.613e-07   2.930e-07    -6.065    -6.533    -0.468      6.30
   H+              8.601e-07   3.248e-06    -6.065    -5.488     0.577      0.00
   H2O             5.551e+01   7.390e-01     1.744    -0.131     0.000     19.19
Cl            6.929e+00
   Cl-             6.929e+00   5.288e+00     0.841     0.723    -0.117     19.49
Na            6.929e+00
   Na+             6.929e+00   6.318e+00     0.841     0.801    -0.040      2.02

------------------------------Saturation indices-------------------------------

  Phase               SI** log IAP   log K(398 K,   2 atm)

  H2O(g)            0.22     -0.13   -0.35  H2O
  Halite            0.00      1.52    1.52  NaCl

**For a gas, SI = log10(fugacity). Fugacity = pressure * phi / 1 atm.
  For ideal gases, phi = 1.

Reaction step 6.

Using solution 1.	
Using pure phase assemblage 1.	
Using temperature 1.	

-------------------------------Phase assemblage--------------------------------

                                                      Moles in assemblage
Phase               SI  log IAP  log K(T, P)   Initial       Final       Delta

Halite            0.00     1.44      1.44    2.000e+01   1.276e+01  -7.236e+00

-----------------------------Solution composition------------------------------

	Elements           Molality       Moles

	Cl                7.236e+00   7.236e+00
	Na                7.236e+00   7.236e+00

----------------------------Description of solution----------------------------

                                       pH  =   5.401      Charge balance
                                       pe  =   4.000      Adjusted to redox equilibrium
       Specific Conductance (uS/cm, 150 oC) = 2016214
                          Density (g/cm3)  =   1.14511
                               Volume (L)  =   1.24256
                        Activity of water  =   0.738
                           Ionic strength  =   7.236e+00
                       Mass of water (kg)  =   1.000e+00
                 Total alkalinity (eq/kg)  =   1.216e-09
                    Total carbon (mol/kg)  =   0.000e+00
                       Total CO2 (mol/kg)  =   0.000e+00
                      Temperature (deg C)  = 150.00
                           Pressure (atm)  =  3.47
                  Electrical balance (eq)  =  -1.220e-09
 Percent error, 100*(Cat-|An|)/(Cat+|An|)  =  -0.00
                               Iterations  =  16
                         Gamma iterations  =   5
                      Osmotic coefficient  =   1.16711
                         Density of water  =   0.91701
                                  Total H  = 1.110124e+02
                                  Total O  = 5.550622e+01

----------------------------Distribution of species----------------------------

                                                    MacInnes  MacInnes
                                MacInnes       Log       Log       Log    mole V
   Species          Molality    Activity  Molality  Activity     Gamma   cm3/mol

   OH-             1.309e-06   4.380e-07    -5.883    -6.358    -0.475      5.84
   H+              1.307e-06   3.974e-06    -5.884    -5.401     0.483      0.00
   H2O             5.551e+01   7.377e-01     1.744    -0.132     0.000     19.65
Cl            7.236e+00
   Cl-             7.236e+00   5.642e+00     0.859     0.751    -0.108     18.79
Na            7.236e+00
   Na+             7.236e+00   4.921e+00     0.859     0.692    -0.167      2.23

------------------------------Saturation indices-------------------------------

  Phase               SI** log IAP   log K(423 K,   3 atm)

  H2O(g)            0.53     -0.13   -0.66  H2O
  Halite            0.00      1.44    1.44  NaCl

**For a gas, SI = log10(fugacity). Fugacity = pressure * phi / 1 atm.
  For ideal gases, phi = 1.

Reaction step 7.

Using solution 1.	
Using pure phase assemblage 1.	
Using temperature 1.	

-------------------------------Phase assemblage--------------------------------

                                                      Moles in assemblage
Phase               SI  log IAP  log K(T, P)   Initial       Final       Delta

Halite            0.00     1.34      1.34    2.000e+01   1.241e+01  -7.592e+00

-----------------------------Solution composition------------------------------

	Elements           Molality       Moles

	Cl                7.592e+00   7.592e+00
	Na                7.592e+00   7.592e+00

----------------------------Description of solution----------------------------

                                       pH  =   5.343      Charge balance
                                       pe  =   4.000      Adjusted to redox equilibrium
       Specific Conductance (uS/cm, 175 oC) = 2010486
                          Density (g/cm3)  =   1.13119
                               Volume (L)  =   1.27626
                        Activity of water  =   0.738
                           Ionic strength  =   7.592e+00
                       Mass of water (kg)  =   1.000e+00
                 Total alkalinity (eq/kg)  =   1.216e-09
                    Total carbon (mol/kg)  =   0.000e+00
                       Total CO2 (mol/kg)  =   0.000e+00
                      Temperature (deg C)  = 175.00
                           Pressure (atm)  =  6.52
                  Electrical balance (eq)  =  -1.201e-09
 Percent error, 100*(Cat-|An|)/(Cat+|An|)  =  -0.00
                               Iterations  =  17
                         Gamma iterations  =   5
                      Osmotic coefficient  =   1.11241
                         Density of water  =   0.89228
                                  Total H  = 1.110124e+02
                                  Total O  = 5.550622e+01

----------------------------Distribution of species----------------------------

                                                    MacInnes  MacInnes
                                MacInnes       Log       Log       Log    mole V
   Species          Molality    Activity  Molality  Activity     Gamma   cm3/mol

   OH-             1.877e-06   5.921e-07    -5.727    -6.228    -0.501      5.08
   H+              1.875e-06   4.537e-06    -5.727    -5.343     0.384      0.00
   H2O             5.551e+01   7.376e-01     1.744    -0.132     0.000     20.19
Cl            7.592e+00
   Cl-             7.592e+00   5.926e+00     0.880     0.773    -0.108     17.90
Na            7.592e+00
   Na+             7.592e+00   3.668e+00     0.880     0.564    -0.316      2.59

------------------------------Saturation indices-------------------------------

  Phase               SI** log IAP   log K(448 K,   7 atm)

  H2O(g)            0.79     -0.13   -0.92  H2O
  Halite            0.00      1.34    1.34  NaCl

**For a gas, SI = log10(fugacity). Fugacity = pressure * phi / 1 atm.
  For ideal gases, phi = 1.

Reaction step 8.

Using solution 1.	
Using pure phase assemblage 1.	
Using temperature 1.	

-------------------------------Phase assemblage--------------------------------

                                                      Moles in assemblage
Phase               SI  log IAP  log K(T, P)   Initial       Final       Delta

Halite            0.00     1.20      1.20    2.000e+01   1.200e+01  -8.000e+00

-----------------------------Solution composition------------------------------

	Elements           Molality       Moles

	Cl                8.000e+00   8.000e+00
	Na                8.000e+00   8.000e+00

----------------------------Description of solution----------------------------

                                       pH  =   5.305      Charge balance
                                       pe  =   4.000      Adjusted to redox equilibrium
       Specific Conductance (uS/cm, 200 oC) = 2033083
                          Density (g/cm3)  =   1.11481
                               Volume (L)  =   1.31642
                        Activity of water  =   0.739
                           Ionic strength  =   8.000e+00
                       Mass of water (kg)  =   1.000e+00
                 Total alkalinity (eq/kg)  =   1.216e-09
                    Total carbon (mol/kg)  =   0.000e+00
                       Total CO2 (mol/kg)  =   0.000e+00
                      Temperature (deg C)  = 200.00
                           Pressure (atm)  = 11.39
                  Electrical balance (eq)  =  -1.267e-09
 Percent error, 100*(Cat-|An|)/(Cat+|An|)  =  -0.00
                               Iterations  =  18
                         Gamma iterations  =   5
                      Osmotic coefficient  =   1.04927
                         Density of water  =   0.86467
                                  Total H  = 1.110124e+02
                                  Total O  = 5.550622e+01

----------------------------Distribution of species----------------------------

                                                    MacInnes  MacInnes
                                MacInnes       Log       Log       Log    mole V
   Species          Molality    Activity  Molality  Activity     Gamma   cm3/mol

   OH-             2.586e-06   7.183e-07    -5.587    -6.144    -0.556      3.89
   H+              2.585e-06   4.958e-06    -5.588    -5.305     0.283      0.00
   H2O             5.551e+01   7.390e-01     1.744    -0.131     0.000     20.84
Cl            8.000e+00
   Cl-             8.000e+00   6.077e+00     0.903     0.784    -0.119     16.78
Na            8.000e+00
   Na+             8.000e+00   2.635e+00     0.903     0.421    -0.482      3.20

------------------------------Saturation indices-------------------------------

  Phase               SI** log IAP   log K(473 K,  11 atm)

  H2O(g)            1.02     -0.13   -1.16  H2O
  Halite            0.00      1.20    1.20  NaCl

**For a gas, SI = log10(fugacity). Fugacity = pressure * phi / 1 atm.
  For ideal gases, phi = 1.

Reaction step 9.

Using solution 1.	
Using pure phase assemblage 1.	
Using temperature 1.	

-------------------------------Phase assemblage--------------------------------

                                                      Moles in assemblage
Phase               SI  log IAP  log K(T, P)   Initial       Final       Delta

Halite            0.00     1.05      1.05    2.000e+01   1.152e+01  -8.475e+00

-----------------------------Solution composition------------------------------

	Elements           Molality       Moles

	Cl                8.475e+00   8.475e+00
	Na                8.475e+00   8.475e+00

----------------------------Description of solution----------------------------

                                       pH  =   5.272      Charge balance
                                       pe  =   4.000      Adjusted to redox equilibrium
       Specific Conductance (uS/cm, 225 oC) = 1912757
                          Density (g/cm3)  =   1.09458
                               Volume (L)  =   1.36610
                        Activity of water  =   0.741
                           Ionic strength  =   8.475e+00
                       Mass of water (kg)  =   1.000e+00
                 Total alkalinity (eq/kg)  =   1.216e-09
                    Total carbon (mol/kg)  =   0.000e+00
                       Total CO2 (mol/kg)  =   0.000e+00
                      Temperature (deg C)  = 225.00
                           Pressure (atm)  = 18.69
                  Electrical balance (eq)  =  -9.763e-09
 Percent error, 100*(Cat-|An|)/(Cat+|An|)  =  -0.00
                               Iterations  =  18
                         Gamma iterations  =   5
                      Osmotic coefficient  =   0.97999
                         Density of water  =   0.83379
                                  Total H  = 1.110124e+02
                                  Total O  = 5.550622e+01

----------------------------Distribution of species----------------------------

                                                    MacInnes  MacInnes
                                MacInnes       Log       Log       Log    mole V
   Species          Molality    Activity  Molality  Activity     Gamma   cm3/mol

   OH-             3.491e-06   7.670e-07    -5.457    -6.115    -0.658      2.13
   H+              3.490e-06   5.347e-06    -5.457    -5.272     0.185      0.00
   H2O             5.551e+01   7.414e-01     1.744    -0.130     0.000     21.61
Cl            8.475e+00
   Cl-             8.475e+00   6.019e+00     0.928     0.780    -0.149     15.40
Na            8.475e+00
   Na+             8.475e+00   1.844e+00     0.928     0.266    -0.662      4.27

------------------------------Saturation indices-------------------------------

  Phase               SI** log IAP   log K(498 K,  19 atm)

  H2O(g)            1.23     -0.13   -1.36  H2O
  Halite            0.00      1.05    1.05  NaCl

**For a gas, SI = log10(fugacity). Fugacity = pressure * phi / 1 atm.
  For ideal gases, phi = 1.

Reaction step 10.

Using solution 1.	
Using pure phase assemblage 1.	
Using temperature 1.	

-------------------------------Phase assemblage--------------------------------

                                                      Moles in assemblage
Phase               SI  log IAP  log K(T, P)   Initial       Final       Delta

Halite            0.00     0.86      0.86    2.000e+01   1.093e+01  -9.071e+00

-----------------------------Solution composition------------------------------

	Elements           Molality       Moles

	Cl                9.071e+00   9.071e+00
	Na                9.071e+00   9.071e+00

----------------------------Description of solution----------------------------

                                       pH  =   5.220      Charge balance
                                       pe  =   4.000      Adjusted to redox equilibrium
       Specific Conductance (uS/cm, 250 oC) = 1502525
                          Density (g/cm3)  =   1.06680
                               Volume (L)  =   1.43433
                        Activity of water  =   0.743
                           Ionic strength  =   9.071e+00
                       Mass of water (kg)  =   1.000e+00
                 Total alkalinity (eq/kg)  =   1.216e-09
                    Total carbon (mol/kg)  =   0.000e+00
                       Total CO2 (mol/kg)  =   0.000e+00
                      Temperature (deg C)  = 250.00
                           Pressure (atm)  = 29.17
                  Electrical balance (eq)  =  -1.236e-09
 Percent error, 100*(Cat-|An|)/(Cat+|An|)  =  -0.00
                               Iterations  =  21
                         Gamma iterations  =   6
                      Osmotic coefficient  =   0.90685
                         Density of water  =   0.79899
                                  Total H  = 1.110124e+02
                                  Total O  = 5.550622e+01

----------------------------Distribution of species----------------------------

                                                    MacInnes  MacInnes
                                MacInnes       Log       Log       Log    mole V
   Species          Molality    Activity  Molality  Activity     Gamma   cm3/mol

   OH-             4.743e-06   6.849e-07    -5.324    -6.164    -0.840     -0.28
   H+              4.741e-06   6.032e-06    -5.324    -5.220     0.105      0.00
   H2O             5.551e+01   7.435e-01     1.744    -0.129     0.000     22.55
Cl            9.071e+00
   Cl-             9.071e+00   5.664e+00     0.958     0.753    -0.205     13.95
Na            9.071e+00
   Na+             9.071e+00   1.277e+00     0.958     0.106    -0.852      6.19

------------------------------Saturation indices-------------------------------

  Phase               SI** log IAP   log K(523 K,  29 atm)

  H2O(g)            1.40     -0.13   -1.53  H2O
  Halite            0.00      0.86    0.86  NaCl

**For a gas, SI = log10(fugacity). Fugacity = pressure * phi / 1 atm.
  For ideal gases, phi = 1.

Reaction step 11.

Using solution 1.	
Using pure phase assemblage 1.	
Using temperature 1.	

-------------------------------Phase assemblage--------------------------------

                                                      Moles in assemblage
Phase               SI  log IAP  log K(T, P)   Initial       Final       Delta

Halite            0.00     0.64      0.64    2.000e+01   1.000e+01  -9.996e+00

-----------------------------Solution composition------------------------------

	Elements           Molality       Moles

	Cl                9.996e+00   9.996e+00
	Na                9.996e+00   9.996e+00

----------------------------Description of solution----------------------------

                                       pH  =   5.072      Charge balance
                                       pe  =   4.000      Adjusted to redox equilibrium
       Specific Conductance (uS/cm, 275 oC) = 792942
                          Density (g/cm3)  =   1.01472
                               Volume (L)  =   1.56124
                        Activity of water  =   0.742
                           Ionic strength  =   9.996e+00
                       Mass of water (kg)  =   1.000e+00
                 Total alkalinity (eq/kg)  =   1.216e-09
                    Total carbon (mol/kg)  =   0.000e+00
                       Total CO2 (mol/kg)  =   0.000e+00
                      Temperature (deg C)  = 275.00
                           Pressure (atm)  = 43.35
                  Electrical balance (eq)  =   2.713e-08
 Percent error, 100*(Cat-|An|)/(Cat+|An|)  =   0.00
                               Iterations  =  23
                         Gamma iterations  =   6
                      Osmotic coefficient  =   0.82947
                         Density of water  =   0.75916
                                  Total H  = 1.110124e+02
                                  Total O  = 5.550622e+01

----------------------------Distribution of species----------------------------

                                                    MacInnes  MacInnes
                                MacInnes       Log       Log       Log    mole V
   Species          Molality    Activity  Molality  Activity     Gamma   cm3/mol

   OH-             6.920e-06   4.296e-07    -5.160    -6.367    -1.207     -1.76
   H+              6.919e-06   8.468e-06    -5.160    -5.072     0.088      0.00
   H2O             5.551e+01   7.417e-01     1.744    -0.130     0.000     23.73
Cl            9.996e+00
   Cl-             9.996e+00   4.881e+00     1.000     0.688    -0.311     14.44
Na            9.996e+00
   Na+             9.996e+00   9.029e-01     1.000    -0.044    -1.044      9.97

------------------------------Saturation indices-------------------------------

  Phase               SI** log IAP   log K(548 K,  43 atm)

  H2O(g)            1.55     -0.13   -1.68  H2O
  Halite            0.00      0.64    0.64  NaCl

**For a gas, SI = log10(fugacity). Fugacity = pressure * phi / 1 atm.
  For ideal gases, phi = 1.

Reaction step 12.

Using solution 1.	
Using pure phase assemblage 1.	
Using temperature 1.	

-------------------------------Phase assemblage--------------------------------

                                                      Moles in assemblage
Phase               SI  log IAP  log K(T, P)   Initial       Final       Delta

Halite            0.00     0.39      0.39    2.000e+01   7.870e+00  -1.213e+01

-----------------------------Solution composition------------------------------

	Elements           Molality       Moles

	Cl                1.213e+01   1.213e+01
	Na                1.213e+01   1.213e+01

----------------------------Description of solution----------------------------

                                       pH  =   4.449      Charge balance
                                       pe  =   4.000      Adjusted to redox equilibrium
       Specific Conductance (uS/cm, 300 oC) = 97095
                          Density (g/cm3)  =   0.84753
                               Volume (L)  =   2.01635
                        Activity of water  =   0.727
                           Ionic strength  =   1.213e+01
                       Mass of water (kg)  =   1.000e+00
                 Total alkalinity (eq/kg)  =   1.216e-09
                    Total carbon (mol/kg)  =   0.000e+00
                       Total CO2 (mol/kg)  =   0.000e+00
                      Temperature (deg C)  = 300.00
                           Pressure (atm)  = 60.88
                  Electrical balance (eq)  =  -1.869e-09
 Percent error, 100*(Cat-|An|)/(Cat+|An|)  =  -0.00
                               Iterations  =  33
                         Gamma iterations  =   8
                      Osmotic coefficient  =   0.73094
                         Density of water  =   0.71233
                                  Total H  = 1.110124e+02
                                  Total O  = 5.550622e+01

----------------------------Distribution of species----------------------------

                                                    MacInnes  MacInnes
                                MacInnes       Log       Log       Log    mole V
   Species          Molality    Activity  Molality  Activity     Gamma   cm3/mol

   OH-             1.451e-05   7.654e-08    -4.838    -7.116    -2.278     11.71
   H+              1.451e-05   3.556e-05    -4.838    -4.449     0.389      0.00
   H2O             5.551e+01   7.265e-01     1.744    -0.139     0.000     25.29
Cl            1.213e+01
   Cl-             1.213e+01   3.173e+00     1.084     0.502    -0.582     31.69
Na            1.213e+01
   Na+             1.213e+01   7.705e-01     1.084    -0.113    -1.197     18.81

------------------------------Saturation indices-------------------------------

  Phase               SI** log IAP   log K(573 K,  61 atm)

  H2O(g)            1.68     -0.14   -1.82  H2O
  Halite            0.00      0.39    0.39  NaCl

**For a gas, SI = log10(fugacity). Fugacity = pressure * phi / 1 atm.
  For ideal gases, phi = 1.

------------------
End of simulation.
------------------

------------------------------------
Reading input data for simulation 2.
------------------------------------

------------------------------
End of Run after 0.05 Seconds.
------------------------------

