WARNING: Database file from DATABASE keyword is used; command line argument ignored.
   Input file: NaMgCl
  Output file: NaMgCl.out
Database file: ../database/pitzer.dat

------------------
Reading data base.
------------------

	SOLUTION_MASTER_SPECIES
	SOLUTION_SPECIES
	PHASES
	PITZER
	EXCHANGE_MASTER_SPECIES
	EXCHANGE_SPECIES
	SURFACE_MASTER_SPECIES
	SURFACE_SPECIES
	END
------------------------------------
Reading input data for simulation 1.
------------------------------------

	DATABASE ../database/pitzer.dat
	PITZER
	b0
	  Na+  Cl-  7.552E-2  0  1.518  -6.257E-3  3.052E-6
WARNING: Redefinition of parameter, Na+ Cl-

	b1
	  Na+  Cl-  0.2771  -819.8  -5.793  1.358e-2  -4.281e-6
WARNING: Redefinition of parameter, Na+ Cl-

	c0
	  Na+  Cl-  1.454e-3   -93.29  0  -5.194e-4  3.282e-7  1.112e4  
WARNING: Redefinition of parameter, Na+ Cl-

	PHASES
	Halite  # Pitzer
		NaCl  =  Cl- + Na+
		log_k	   1.570
		analytical_expression  -0.388  1.97e-2   511   -1.167  -4.88e4  -2.4432e-5
		vm 27.1
	PITZER
	b0
	  Mg+2  Cl-  0.351  0  0  -9.32e-4  5.94e-7
WARNING: Redefinition of parameter, Mg+2 Cl-

	b1
	  Mg+2  Cl-  1.65  0  0  -1.09e-2  2.60e-5
WARNING: Redefinition of parameter, Mg+2 Cl-

	c0
	  Mg+2  Cl-  0.00651  0  0  -2.50e-4  2.418e-7
WARNING: Redefinition of parameter, Mg+2 Cl-

	psi
	 Na+  Mg+2  Cl-  -0.012  -9.51
WARNING: Redefinition of parameter, Na+ Mg+2 Cl-

	PHASES
	Bischofite
		MgCl2:6H2O  =  Mg+2 + 2 Cl- + 6 H2O
		log_k	   4.455
		analytical_expression  7.526  -1.114e-2  115.7
		Vm 127.1
	MgCl2_4H2O
		MgCl2:4H2O  =  Mg+2 + 2 Cl- + 4 H2O
		analytical_expression  12.98  -2.013e-2
	MgCl2_2H2O
		MgCl2:2H2O  =  Mg+2 + 2 Cl- + 2 H2O
		analytical_expression  -10.273  0  7.403e3
	SOLUTION 1
	 Na 7 charge
	 Cl 7 Halite
	 temp 0
	EQUILIBRIUM_PHASES 1
	 Halite
	 Bischofite 0 0
	REACTION 1
	 MgCl2 1
	 13.9 in 20
	USER_GRAPH 
	-headings x 0.oC SI("Bischofite")
	-chart_title "Halite saturation curves"
	-axis_titles "NaCl / (mol/kgw)" "MgCl2 / (mol/kgw)" "Saturation Index"
	-axis_scale x_axis 0 8
	-axis_scale y_axis 0 16
	-axis_scale sy_axis -7 1
	-initial true
	10 graph_x tot("Na")
	20 graph_y tot("Mg")
	30 if sim_no = 1 and step_no > 0 then graph_sy SI("Bischofite")
	-end
	PRINT
	 status false
	 warnings 0
	END
-------------------------------------------
Beginning of initial solution calculations.
-------------------------------------------

Initial solution 1.	

-----------------------------Solution composition------------------------------

	Elements           Molality       Moles

	Cl                6.029e+00   6.029e+00  Equilibrium with Halite
	Na                6.029e+00   6.029e+00  Charge balance

----------------------------Description of solution----------------------------

                                       pH  =   7.000    
                                       pe  =   4.000    
       Specific Conductance (uS/cm, 0 oC) = 208287
                          Density (g/cm3)  =   1.20706
                               Volume (L)  =   1.12036
                        Activity of water  =   0.755
                           Ionic strength  =   6.029e+00
                       Mass of water (kg)  =   1.000e+00
                 Total alkalinity (eq/kg)  =   1.465e-08
                    Total carbon (mol/kg)  =   0.000e+00
                       Total CO2 (mol/kg)  =   0.000e+00
                      Temperature (deg C)  =   0.00
                  Electrical balance (eq)  =  -3.923e-13
 Percent error, 100*(Cat-|An|)/(Cat+|An|)  =  -0.00
                               Iterations  =  13
                         Gamma iterations  =   5
                      Osmotic coefficient  =   1.29488
                         Density of water  =   0.99984
                                  Total H  = 1.110124e+02
                                  Total O  = 5.550622e+01

----------------------------Distribution of species----------------------------

                                                    MacInnes  MacInnes
                                MacInnes       Log       Log       Log    mole V
   Species          Molality    Activity  Molality  Activity     Gamma   cm3/mol

   OH-             2.567e-08   8.697e-09    -7.591    -8.061    -0.470      2.22
   H+              1.101e-08   1.000e-07    -7.958    -7.000     0.958      0.00
   H2O             5.551e+01   7.548e-01     1.744    -0.122     0.000     18.02
Cl            6.029e+00
   Cl-             6.029e+00   3.418e+00     0.780     0.534    -0.246     18.95
Na            6.029e+00
   Na+             6.029e+00   1.023e+01     0.780     1.010     0.230      0.98

------------------------------Saturation indices-------------------------------

	Phase               SI   log IAP   log K(273 K,   1 atm)

	H2O(g)           -2.33     -0.12    2.21  H2O
	Halite            0.00      1.54    1.54  NaCl


-----------------------------------------
Beginning of batch-reaction calculations.
-----------------------------------------

Reaction step 1.

Using solution 1.	
Using pure phase assemblage 1.	
Using reaction 1.	

Reaction 1.	

	  6.950e-01 moles of the following reaction have been added:

	                 Relative
	Reactant            moles

	MgCl2                1.00000

	                 Relative
	Element             moles
	Cl                   2.00000
	Mg                   1.00000

-------------------------------Phase assemblage--------------------------------

                                                      Moles in assemblage
Phase               SI  log IAP  log K(T, P)   Initial       Final       Delta

Bischofite       -3.58     1.32      4.91    0.000e+00           0   0.000e+00
Halite            0.00     1.54      1.54    1.000e+01   1.132e+01   1.320e+00

-----------------------------Solution composition------------------------------

	Elements           Molality       Moles

	Cl                6.099e+00   6.099e+00
	Mg                6.950e-01   6.950e-01
	Na                4.709e+00   4.709e+00

----------------------------Description of solution----------------------------

                                       pH  =   5.461      Charge balance
                                       pe  =   4.000      Adjusted to redox equilibrium
       Specific Conductance (uS/cm, 0 oC) = 211785
                          Density (g/cm3)  =   1.20712
                               Volume (L)  =   1.11123
                        Activity of water  =   0.743
                           Ionic strength  =   6.794e+00
                       Mass of water (kg)  =   1.000e+00
                 Total alkalinity (eq/kg)  =   1.465e-08
                    Total carbon (mol/kg)  =   0.000e+00
                       Total CO2 (mol/kg)  =   0.000e+00
                      Temperature (deg C)  =   0.00
                  Electrical balance (eq)  =  -6.390e-10
 Percent error, 100*(Cat-|An|)/(Cat+|An|)  =  -0.00
                               Iterations  =  13
                         Gamma iterations  =   5
                      Osmotic coefficient  =   1.43464
                         Density of water  =   0.99984
                                  Total H  = 1.110124e+02
                                  Total O  = 5.550622e+01

----------------------------Distribution of species----------------------------

                                                    MacInnes  MacInnes
                                MacInnes       Log       Log       Log    mole V
   Species          Molality    Activity  Molality  Activity     Gamma   cm3/mol

   H+              3.076e-07   3.457e-06    -6.512    -5.461     1.051      0.00
   OH-             1.388e-09   2.476e-10    -8.858    -9.606    -0.749      3.18
   H2O             5.551e+01   7.428e-01     1.744    -0.129     0.000     18.02
Cl            6.099e+00
   Cl-             6.099e+00   3.549e+00     0.785     0.550    -0.235     19.16
Mg            6.950e-01
   Mg+2            6.950e-01   9.966e+00    -0.158     0.999     1.157    -17.47
   MgOH+           3.209e-07   3.071e-07    -6.494    -6.513    -0.019     (0)  
Na            4.709e+00
   Na+             4.709e+00   9.851e+00     0.673     0.993     0.321      1.35

------------------------------Saturation indices-------------------------------

	Phase               SI   log IAP   log K(273 K,   1 atm)

	Bischofite       -3.58      1.32    4.91  MgCl2:6H2O
	Brucite          -7.01    -18.21  -11.21  Mg(OH)2
	H2O(g)           -2.34     -0.13    2.21  H2O
	Halite            0.00      1.54    1.54  NaCl
	MgCl2_2H2O      -14.99      1.84   16.83  MgCl2:2H2O
	MgCl2_4H2O       -5.90      1.58    7.48  MgCl2:4H2O


Reaction step 2.

Using solution 1.	
Using pure phase assemblage 1.	
Using reaction 1.	

Reaction 1.	

	  1.390e+00 moles of the following reaction have been added:

	                 Relative
	Reactant            moles

	MgCl2                1.00000

	                 Relative
	Element             moles
	Cl                   2.00000
	Mg                   1.00000

-------------------------------Phase assemblage--------------------------------

                                                      Moles in assemblage
Phase               SI  log IAP  log K(T, P)   Initial       Final       Delta

Bischofite       -3.05     1.85      4.91    0.000e+00           0   0.000e+00
Halite            0.00     1.54      1.54    1.000e+01   1.257e+01   2.565e+00

-----------------------------Solution composition------------------------------

	Elements           Molality       Moles

	Cl                6.243e+00   6.243e+00
	Mg                1.390e+00   1.390e+00
	Na                3.463e+00   3.463e+00

----------------------------Description of solution----------------------------

                                       pH  =   5.172      Charge balance
                                       pe  =   4.000      Adjusted to redox equilibrium
       Specific Conductance (uS/cm, 0 oC) = 219222
                          Density (g/cm3)  =   1.20991
                               Volume (L)  =   1.10318
                        Activity of water  =   0.724
                           Ionic strength  =   7.633e+00
                       Mass of water (kg)  =   1.000e+00
                 Total alkalinity (eq/kg)  =   1.465e-08
                    Total carbon (mol/kg)  =   0.000e+00
                       Total CO2 (mol/kg)  =   0.000e+00
                      Temperature (deg C)  =   0.00
                  Electrical balance (eq)  =  -6.001e-12
 Percent error, 100*(Cat-|An|)/(Cat+|An|)  =  -0.00
                               Iterations  =  14
                         Gamma iterations  =   5
                      Osmotic coefficient  =   1.61484
                         Density of water  =   0.99984
                                  Total H  = 1.110124e+02
                                  Total O  = 5.550622e+01

----------------------------Distribution of species----------------------------

                                                    MacInnes  MacInnes
                                MacInnes       Log       Log       Log    mole V
   Species          Molality    Activity  Molality  Activity     Gamma   cm3/mol

   H+              4.558e-07   6.731e-06    -6.341    -5.172     1.169      0.00
   OH-             1.313e-09   1.240e-10    -8.882    -9.907    -1.025      4.20
   H2O             5.551e+01   7.241e-01     1.744    -0.140     0.000     18.02
Cl            6.243e+00
   Cl-             6.243e+00   3.755e+00     0.795     0.575    -0.221     19.37
Mg            1.390e+00
   Mg+2            1.390e+00   3.523e+01     0.143     1.547     1.404    -17.21
   MgOH+           4.692e-07   5.435e-07    -6.329    -6.265     0.064     (0)  
Na            3.463e+00
   Na+             3.463e+00   9.311e+00     0.539     0.969     0.429      1.74

------------------------------Saturation indices-------------------------------

	Phase               SI   log IAP   log K(273 K,   1 atm)

	Bischofite       -3.05      1.85    4.91  MgCl2:6H2O
	Brucite          -7.06    -18.27  -11.21  Mg(OH)2
	H2O(g)           -2.35     -0.14    2.21  H2O
	Halite            0.00      1.54    1.54  NaCl
	MgCl2_2H2O      -14.41      2.42   16.83  MgCl2:2H2O
	MgCl2_4H2O       -5.35      2.14    7.48  MgCl2:4H2O


Reaction step 3.

Using solution 1.	
Using pure phase assemblage 1.	
Using reaction 1.	

Reaction 1.	

	  2.085e+00 moles of the following reaction have been added:

	                 Relative
	Reactant            moles

	MgCl2                1.00000

	                 Relative
	Element             moles
	Cl                   2.00000
	Mg                   1.00000

-------------------------------Phase assemblage--------------------------------

                                                      Moles in assemblage
Phase               SI  log IAP  log K(T, P)   Initial       Final       Delta

Bischofite       -2.59     2.31      4.91    0.000e+00           0   0.000e+00
Halite            0.00     1.54      1.54    1.000e+01   1.368e+01   3.682e+00

-----------------------------Solution composition------------------------------

	Elements           Molality       Moles

	Cl                6.517e+00   6.517e+00
	Mg                2.085e+00   2.085e+00
	Na                2.347e+00   2.347e+00

----------------------------Description of solution----------------------------

                                       pH  =   4.908      Charge balance
                                       pe  =   4.000      Adjusted to redox equilibrium
       Specific Conductance (uS/cm, 0 oC) = 233219
                          Density (g/cm3)  =   1.21670
                               Volume (L)  =   1.09779
                        Activity of water  =   0.695
                           Ionic strength  =   8.602e+00
                       Mass of water (kg)  =   1.000e+00
                 Total alkalinity (eq/kg)  =   1.465e-08
                    Total carbon (mol/kg)  =   0.000e+00
                       Total CO2 (mol/kg)  =   0.000e+00
                      Temperature (deg C)  =   0.00
                  Electrical balance (eq)  =  -7.846e-09
 Percent error, 100*(Cat-|An|)/(Cat+|An|)  =  -0.00
                               Iterations  =  17
                         Gamma iterations  =   6
                      Osmotic coefficient  =   1.84410
                         Density of water  =   0.99984
                                  Total H  = 1.110124e+02
                                  Total O  = 5.550622e+01

----------------------------Distribution of species----------------------------

                                                    MacInnes  MacInnes
                                MacInnes       Log       Log       Log    mole V
   Species          Molality    Activity  Molality  Activity     Gamma   cm3/mol

   H+              5.857e-07   1.237e-05    -6.232    -4.908     1.325      0.00
   OH-             1.294e-09   6.475e-11    -8.888   -10.189    -1.301      5.38
   H2O             5.551e+01   6.951e-01     1.744    -0.158     0.000     18.02
Cl            6.517e+00
   Cl-             6.517e+00   4.092e+00     0.814     0.612    -0.202     19.61
Mg            2.085e+00
   Mg+2            2.085e+00   1.093e+02     0.319     2.039     1.720    -16.91
   MgOH+           5.990e-07   8.808e-07    -6.223    -6.055     0.167     (0)  
Na            2.347e+00
   Na+             2.347e+00   8.544e+00     0.370     0.932     0.561      2.17

------------------------------Saturation indices-------------------------------

	Phase               SI   log IAP   log K(273 K,   1 atm)

	Bischofite       -2.59      2.31    4.91  MgCl2:6H2O
	Brucite          -7.13    -18.34  -11.21  Mg(OH)2
	H2O(g)           -2.37     -0.16    2.21  H2O
	Halite            0.00      1.54    1.54  NaCl
	MgCl2_2H2O      -13.88      2.95   16.83  MgCl2:2H2O
	MgCl2_4H2O       -4.85      2.63    7.48  MgCl2:4H2O


Reaction step 4.

Using solution 1.	
Using pure phase assemblage 1.	
Using reaction 1.	

Reaction 1.	

	  2.780e+00 moles of the following reaction have been added:

	                 Relative
	Reactant            moles

	MgCl2                1.00000

	                 Relative
	Element             moles
	Cl                   2.00000
	Mg                   1.00000

-------------------------------Phase assemblage--------------------------------

                                                      Moles in assemblage
Phase               SI  log IAP  log K(T, P)   Initial       Final       Delta

Bischofite       -2.11     2.79      4.91    0.000e+00           0   0.000e+00
Halite            0.00     1.54      1.54    1.000e+01   1.460e+01   4.598e+00

-----------------------------Solution composition------------------------------

	Elements           Molality       Moles

	Cl                6.990e+00   6.990e+00
	Mg                2.780e+00   2.780e+00
	Na                1.430e+00   1.430e+00

----------------------------Description of solution----------------------------

                                       pH  =   4.612      Charge balance
                                       pe  =   4.000      Adjusted to redox equilibrium
       Specific Conductance (uS/cm, 0 oC) = 258302
                          Density (g/cm3)  =   1.22905
                               Volume (L)  =   1.09701
                        Activity of water  =   0.651
                           Ionic strength  =   9.770e+00
                       Mass of water (kg)  =   1.000e+00
                 Total alkalinity (eq/kg)  =   1.465e-08
                    Total carbon (mol/kg)  =   0.000e+00
                       Total CO2 (mol/kg)  =   0.000e+00
                      Temperature (deg C)  =   0.00
                  Electrical balance (eq)  =   2.486e-10
 Percent error, 100*(Cat-|An|)/(Cat+|An|)  =   0.00
                               Iterations  =  20
                         Gamma iterations  =   7
                      Osmotic coefficient  =   2.12939
                         Density of water  =   0.99984
                                  Total H  = 1.110124e+02
                                  Total O  = 5.550622e+01

----------------------------Distribution of species----------------------------

                                                    MacInnes  MacInnes
                                MacInnes       Log       Log       Log    mole V
   Species          Molality    Activity  Molality  Activity     Gamma   cm3/mol

   H+              7.224e-07   2.445e-05    -6.141    -4.612     1.529      0.00
   OH-             1.152e-09   3.067e-11    -8.939   -10.513    -1.575      6.80
   H2O             5.551e+01   6.507e-01     1.744    -0.187     0.000     18.02
Cl            6.990e+00
   Cl-             6.990e+00   4.650e+00     0.844     0.667    -0.177     19.89
Mg            2.780e+00
   Mg+2            2.780e+00   3.784e+02     0.444     2.578     2.134    -16.55
   MgOH+           7.359e-07   1.445e-06    -6.133    -5.840     0.293     (0)  
Na            1.430e+00
   Na+             1.430e+00   7.518e+00     0.155     0.876     0.721      2.67

------------------------------Saturation indices-------------------------------

	Phase               SI   log IAP   log K(273 K,   1 atm)

	Bischofite       -2.11      2.79    4.91  MgCl2:6H2O
	Brucite          -7.24    -18.45  -11.21  Mg(OH)2
	H2O(g)           -2.40     -0.19    2.21  H2O
	Halite            0.00      1.54    1.54  NaCl
	MgCl2_2H2O      -13.29      3.54   16.83  MgCl2:2H2O
	MgCl2_4H2O       -4.31      3.17    7.48  MgCl2:4H2O


Reaction step 5.

Using solution 1.	
Using pure phase assemblage 1.	
Using reaction 1.	

Reaction 1.	

	  3.475e+00 moles of the following reaction have been added:

	                 Relative
	Reactant            moles

	MgCl2                1.00000

	                 Relative
	Element             moles
	Cl                   2.00000
	Mg                   1.00000

-------------------------------Phase assemblage--------------------------------

                                                      Moles in assemblage
Phase               SI  log IAP  log K(T, P)   Initial       Final       Delta

Bischofite       -1.59     3.32      4.91    0.000e+00           0   0.000e+00
Halite            0.00     1.54      1.54    1.000e+01   1.526e+01   5.257e+00

-----------------------------Solution composition------------------------------

	Elements           Molality       Moles

	Cl                7.721e+00   7.721e+00
	Mg                3.475e+00   3.475e+00
	Na                7.712e-01   7.712e-01

----------------------------Description of solution----------------------------

                                       pH  =   4.259      Charge balance
                                       pe  =   4.000      Adjusted to redox equilibrium
       Specific Conductance (uS/cm, 0 oC) = 301967
                          Density (g/cm3)  =   1.24766
                               Volume (L)  =   1.10281
                        Activity of water  =   0.587
                           Ionic strength  =   1.120e+01
                       Mass of water (kg)  =   1.000e+00
                 Total alkalinity (eq/kg)  =   1.465e-08
                    Total carbon (mol/kg)  =   0.000e+00
                       Total CO2 (mol/kg)  =   0.000e+00
                      Temperature (deg C)  =   0.00
                  Electrical balance (eq)  =  -1.048e-11
 Percent error, 100*(Cat-|An|)/(Cat+|An|)  =  -0.00
                               Iterations  =  22
                         Gamma iterations  =   7
                      Osmotic coefficient  =   2.47108
                         Density of water  =   0.99984
                                  Total H  = 1.110124e+02
                                  Total O  = 5.550622e+01

----------------------------Distribution of species----------------------------

                                                    MacInnes  MacInnes
                                MacInnes       Log       Log       Log    mole V
   Species          Molality    Activity  Molality  Activity     Gamma   cm3/mol

   H+              8.889e-07   5.514e-05    -6.051    -4.259     1.793      0.00
   OH-             8.587e-10   1.227e-11    -9.066   -10.911    -1.845      8.52
   H2O             5.551e+01   5.870e-01     1.744    -0.231     0.000     18.02
Cl            7.721e+00
   Cl-             7.721e+00   5.553e+00     0.888     0.745    -0.143     20.22
Mg            3.475e+00
   Mg+2            3.475e+00   1.000e+03     0.541     3.216     2.675    -16.11
   MgOH+           9.027e-07   2.508e-06    -6.044    -5.601     0.444     (0)  
Na            7.712e-01
   Na+             7.712e-01   6.295e+00    -0.113     0.799     0.912      3.26

------------------------------Saturation indices-------------------------------

	Phase               SI   log IAP   log K(273 K,   1 atm)

	Bischofite       -1.59      3.32    4.91  MgCl2:6H2O
	Brucite          -7.40    -18.61  -11.21  Mg(OH)2
	H2O(g)           -2.44     -0.23    2.21  H2O
	Halite            0.00      1.54    1.54  NaCl
	MgCl2_2H2O      -12.59      4.24   16.83  MgCl2:2H2O
	MgCl2_4H2O       -3.70      3.78    7.48  MgCl2:4H2O


Reaction step 6.

Using solution 1.	
Using pure phase assemblage 1.	
Using reaction 1.	

Reaction 1.	

	  4.170e+00 moles of the following reaction have been added:

	                 Relative
	Reactant            moles

	MgCl2                1.00000

	                 Relative
	Element             moles
	Cl                   2.00000
	Mg                   1.00000

-------------------------------Phase assemblage--------------------------------

                                                      Moles in assemblage
Phase               SI  log IAP  log K(T, P)   Initial       Final       Delta

Bischofite       -1.04     3.87      4.91    0.000e+00           0   0.000e+00
Halite            0.00     1.54      1.54    1.000e+01   1.566e+01   5.658e+00

-----------------------------Solution composition------------------------------

	Elements           Molality       Moles

	Cl                8.710e+00   8.710e+00
	Mg                4.170e+00   4.170e+00
	Na                3.705e-01   3.705e-01

----------------------------Description of solution----------------------------

                                       pH  =   3.845      Charge balance
                                       pe  =   4.000      Adjusted to redox equilibrium
       Specific Conductance (uS/cm, 0 oC) = 377556
                          Density (g/cm3)  =   1.27122
                               Volume (L)  =   1.11600
                        Activity of water  =   0.505
                           Ionic strength  =   1.288e+01
                       Mass of water (kg)  =   1.000e+00
                 Total alkalinity (eq/kg)  =   1.465e-08
                    Total carbon (mol/kg)  =   0.000e+00
                       Total CO2 (mol/kg)  =   0.000e+00
                      Temperature (deg C)  =   0.00
                  Electrical balance (eq)  =  -2.738e-08
 Percent error, 100*(Cat-|An|)/(Cat+|An|)  =  -0.00
                               Iterations  =  31
                         Gamma iterations  =   9
                      Osmotic coefficient  =   2.86087
                         Density of water  =   0.99984
                                  Total H  = 1.110124e+02
                                  Total O  = 5.550622e+01

----------------------------Distribution of species----------------------------

                                                    MacInnes  MacInnes
                                MacInnes       Log       Log       Log    mole V
   Species          Molality    Activity  Molality  Activity     Gamma   cm3/mol

   H+              1.105e-06   1.428e-04    -5.957    -3.845     2.112      0.00
   OH-             5.268e-10   4.076e-12    -9.278   -11.390    -2.111     10.55
   H2O             5.551e+01   5.051e-01     1.744    -0.297     0.000     18.02
Cl            8.710e+00
   Cl-             8.710e+00   6.932e+00     0.940     0.841    -0.099     20.60
Mg            4.170e+00
   Mg+2            4.170e+00   1.000e+03     0.620     3.968     3.348    -15.59
   MgOH+           1.119e-06   4.713e-06    -5.951    -5.327     0.625     (0)  
Na            3.705e-01
   Na+             3.705e-01   5.044e+00    -0.431     0.703     1.134      3.93

------------------------------Saturation indices-------------------------------

	Phase               SI   log IAP   log K(273 K,   1 atm)

	Bischofite       -1.04      3.87    4.91  MgCl2:6H2O
	Brucite          -7.61    -18.81  -11.21  Mg(OH)2
	H2O(g)           -2.51     -0.30    2.21  H2O
	Halite            0.00      1.54    1.54  NaCl
	MgCl2_2H2O      -11.77      5.06   16.83  MgCl2:2H2O
	MgCl2_4H2O       -3.02      4.46    7.48  MgCl2:4H2O


Reaction step 7.

Using solution 1.	
Using pure phase assemblage 1.	
Using reaction 1.	

Reaction 1.	

	  4.865e+00 moles of the following reaction have been added:

	                 Relative
	Reactant            moles

	MgCl2                1.00000

	                 Relative
	Element             moles
	Cl                   2.00000
	Mg                   1.00000

-------------------------------Phase assemblage--------------------------------

                                                      Moles in assemblage
Phase               SI  log IAP  log K(T, P)   Initial       Final       Delta

Bischofite       -0.49     4.42      4.91    0.000e+00           0   0.000e+00
Halite            0.00     1.54      1.54    1.000e+01   1.587e+01   5.865e+00

-----------------------------Solution composition------------------------------

	Elements           Molality       Moles

	Cl                9.893e+00   9.893e+00
	Mg                4.865e+00   4.865e+00
	Na                1.632e-01   1.632e-01

----------------------------Description of solution----------------------------

                                       pH  =   3.390      Charge balance
                                       pe  =   4.000      Adjusted to redox equilibrium
       Specific Conductance (uS/cm, 0 oC) = 514396
                          Density (g/cm3)  =   1.29687
                               Volume (L)  =   1.13561
                        Activity of water  =   0.413
                           Ionic strength  =   1.476e+01
                       Mass of water (kg)  =   1.000e+00
                 Total alkalinity (eq/kg)  =   1.465e-08
                    Total carbon (mol/kg)  =   0.000e+00
                       Total CO2 (mol/kg)  =   0.000e+00
                      Temperature (deg C)  =   0.00
                  Electrical balance (eq)  =  -1.188e-09
 Percent error, 100*(Cat-|An|)/(Cat+|An|)  =  -0.00
                               Iterations  =  28
                         Gamma iterations  =   9
                      Osmotic coefficient  =   3.28685
                         Density of water  =   0.99984
                                  Total H  = 1.110124e+02
                                  Total O  = 5.550622e+01

----------------------------Distribution of species----------------------------

                                                    MacInnes  MacInnes
                                MacInnes       Log       Log       Log    mole V
   Species          Molality    Activity  Molality  Activity     Gamma   cm3/mol

   H+              1.377e-06   4.076e-04    -5.861    -3.390     2.471      0.00
   OH-             2.768e-10   1.168e-12    -9.558   -11.932    -2.375     12.78
   H2O             5.551e+01   4.133e-01     1.744    -0.384     0.000     18.02
Cl            9.893e+00
   Cl-             9.893e+00   8.899e+00     0.995     0.949    -0.046     21.00
Mg            4.865e+00
   Mg+2            4.865e+00   1.000e+03     0.687     4.820     4.133    -15.02
   MgOH+           1.392e-06   9.611e-06    -5.857    -5.017     0.839     (0)  
Na            1.632e-01
   Na+             1.632e-01   3.929e+00    -0.787     0.594     1.382      4.65

------------------------------Saturation indices-------------------------------

	Phase               SI   log IAP   log K(273 K,   1 atm)

	Bischofite       -0.49      4.42    4.91  MgCl2:6H2O
	Brucite          -7.84    -19.04  -11.21  Mg(OH)2
	H2O(g)           -2.59     -0.38    2.21  H2O
	Halite            0.00      1.54    1.54  NaCl
	MgCl2_2H2O      -10.88      5.95   16.83  MgCl2:2H2O
	MgCl2_4H2O       -2.30      5.18    7.48  MgCl2:4H2O


Reaction step 8.

Using solution 1.	
Using pure phase assemblage 1.	
Using reaction 1.	

Reaction 1.	

	  5.560e+00 moles of the following reaction have been added:

	                 Relative
	Reactant            moles

	MgCl2                1.00000

	                 Relative
	Element             moles
	Cl                   2.00000
	Mg                   1.00000

-------------------------------Phase assemblage--------------------------------

                                                      Moles in assemblage
Phase               SI  log IAP  log K(T, P)   Initial       Final       Delta

Bischofite        0.00     4.91      4.91    0.000e+00   4.628e-02   4.628e-02
Halite            0.00     1.54      1.54    1.000e+01   1.596e+01   5.959e+00

-----------------------------Solution composition------------------------------

	Elements           Molality       Moles

	Cl                1.115e+01   1.110e+01
	Mg                5.541e+00   5.514e+00
	Na                6.973e-02   6.938e-02

----------------------------Description of solution----------------------------

                                       pH  =   2.927      Charge balance
                                       pe  =   4.000      Adjusted to redox equilibrium
       Specific Conductance (uS/cm, 0 oC) = 722666
                          Density (g/cm3)  =   1.32125
                               Volume (L)  =   1.15347
                        Activity of water  =   0.324
                           Ionic strength  =   1.669e+01
                       Mass of water (kg)  =   9.950e-01
                 Total alkalinity (eq/kg)  =   1.473e-08
                    Total carbon (mol/kg)  =   0.000e+00
                       Total CO2 (mol/kg)  =   0.000e+00
                      Temperature (deg C)  =   0.00
                  Electrical balance (eq)  =  -8.059e-12
 Percent error, 100*(Cat-|An|)/(Cat+|An|)  =  -0.00
                               Iterations  =  38
                         Gamma iterations  =  11
                      Osmotic coefficient  =   3.72739
                         Density of water  =   0.99984
                                  Total H  = 1.104571e+02
                                  Total O  = 5.522853e+01

----------------------------Distribution of species----------------------------

                                                    MacInnes  MacInnes
                                MacInnes       Log       Log       Log    mole V
   Species          Molality    Activity  Molality  Activity     Gamma   cm3/mol

   H+              1.692e-06   1.182e-03    -5.771    -2.927     2.844      0.00
   OH-             1.347e-10   3.163e-13    -9.871   -12.500    -2.629     15.06
   H2O             5.551e+01   3.244e-01     1.744    -0.489     0.000     18.02
Cl            1.115e+01
   Cl-             1.115e+01   1.149e+01     1.047     1.060     0.013     21.41
Mg            5.541e+00
   Mg+2            5.541e+00   1.000e+03     0.744     5.719     4.976    -14.44
   MgOH+           1.707e-06   2.063e-05    -5.768    -4.686     1.082     (0)  
Na            6.973e-02
   Na+             6.973e-02   3.043e+00    -1.157     0.483     1.640      5.36

------------------------------Saturation indices-------------------------------

	Phase               SI   log IAP   log K(273 K,   1 atm)

	Bischofite        0.00      4.91    4.91  MgCl2:6H2O
	Brucite          -8.08    -19.28  -11.21  Mg(OH)2
	H2O(g)           -2.70     -0.49    2.21  H2O
	Halite            0.00      1.54    1.54  NaCl
	MgCl2_2H2O       -9.97      6.86   16.83  MgCl2:2H2O
	MgCl2_4H2O       -1.60      5.88    7.48  MgCl2:4H2O


Reaction step 9.

Using solution 1.	
Using pure phase assemblage 1.	
Using reaction 1.	

Reaction 1.	

	  6.255e+00 moles of the following reaction have been added:

	                 Relative
	Reactant            moles

	MgCl2                1.00000

	                 Relative
	Element             moles
	Cl                   2.00000
	Mg                   1.00000

-------------------------------Phase assemblage--------------------------------

                                                      Moles in assemblage
Phase               SI  log IAP  log K(T, P)   Initial       Final       Delta

Bischofite        0.00     4.91      4.91    0.000e+00   1.779e+00   1.779e+00
Halite            0.00     1.54      1.54    1.000e+01   1.597e+01   5.972e+00

-----------------------------Solution composition------------------------------

	Elements           Molality       Moles

	Cl                1.115e+01   9.007e+00
	Mg                5.541e+00   4.476e+00
	Na                6.973e-02   5.632e-02

----------------------------Description of solution----------------------------

                                       pH  =   2.928      Charge balance
                                       pe  =   4.000      Adjusted to redox equilibrium
       Specific Conductance (uS/cm, 0 oC) = 722666
                          Density (g/cm3)  =   1.32119
                               Volume (L)  =   0.93632
                        Activity of water  =   0.324
                           Ionic strength  =   1.669e+01
                       Mass of water (kg)  =   8.076e-01
                 Total alkalinity (eq/kg)  =   1.815e-08
                    Total carbon (mol/kg)  =   0.000e+00
                       Total CO2 (mol/kg)  =   0.000e+00
                      Temperature (deg C)  =   0.00
                  Electrical balance (eq)  =   5.030e-12
 Percent error, 100*(Cat-|An|)/(Cat+|An|)  =   0.00
                               Iterations  =  43
                         Gamma iterations  =  11
                      Osmotic coefficient  =   3.72739
                         Density of water  =   0.99984
                                  Total H  = 8.965866e+01
                                  Total O  = 4.482933e+01

----------------------------Distribution of species----------------------------

                                                    MacInnes  MacInnes
                                MacInnes       Log       Log       Log    mole V
   Species          Molality    Activity  Molality  Activity     Gamma   cm3/mol

   H+              1.691e-06   1.181e-03    -5.772    -2.928     2.844      0.00
   OH-             1.348e-10   3.166e-13    -9.870   -12.500    -2.629     15.08
   H2O             5.551e+01   3.244e-01     1.744    -0.489     0.000     18.02
Cl            1.115e+01
   Cl-             1.115e+01   1.149e+01     1.047     1.060     0.013     21.41
Mg            5.541e+00
   Mg+2            5.541e+00   1.000e+03     0.744     5.719     4.976    -14.44
   MgOH+           1.709e-06   2.065e-05    -5.767    -4.685     1.082     (0)  
Na            6.973e-02
   Na+             6.973e-02   3.043e+00    -1.157     0.483     1.640      5.37

------------------------------Saturation indices-------------------------------

	Phase               SI   log IAP   log K(273 K,   1 atm)

	Bischofite        0.00      4.91    4.91  MgCl2:6H2O
	Brucite          -8.07    -19.28  -11.21  Mg(OH)2
	H2O(g)           -2.70     -0.49    2.21  H2O
	Halite            0.00      1.54    1.54  NaCl
	MgCl2_2H2O       -9.97      6.86   16.83  MgCl2:2H2O
	MgCl2_4H2O       -1.60      5.88    7.48  MgCl2:4H2O


Reaction step 10.

Using solution 1.	
Using pure phase assemblage 1.	
Using reaction 1.	

Reaction 1.	

	  6.950e+00 moles of the following reaction have been added:

	                 Relative
	Reactant            moles

	MgCl2                1.00000

	                 Relative
	Element             moles
	Cl                   2.00000
	Mg                   1.00000

-------------------------------Phase assemblage--------------------------------

                                                      Moles in assemblage
Phase               SI  log IAP  log K(T, P)   Initial       Final       Delta

Bischofite       -0.00     4.91      4.91    0.000e+00   3.513e+00   3.513e+00
Halite            0.00     1.54      1.54    1.000e+01   1.599e+01   5.985e+00

-----------------------------Solution composition------------------------------

	Elements           Molality       Moles

	Cl                1.115e+01   6.918e+00
	Mg                5.541e+00   3.437e+00
	Na                6.973e-02   4.325e-02

----------------------------Description of solution----------------------------

                                       pH  =   2.929      Charge balance
                                       pe  =   4.000      Adjusted to redox equilibrium
       Specific Conductance (uS/cm, 0 oC) = 722666
                          Density (g/cm3)  =   1.32123
                               Volume (L)  =   0.71910
                        Activity of water  =   0.324
                           Ionic strength  =   1.669e+01
                       Mass of water (kg)  =   6.203e-01
                 Total alkalinity (eq/kg)  =   2.363e-08
                    Total carbon (mol/kg)  =   0.000e+00
                       Total CO2 (mol/kg)  =   0.000e+00
                      Temperature (deg C)  =   0.00
                  Electrical balance (eq)  =  -5.917e-09
 Percent error, 100*(Cat-|An|)/(Cat+|An|)  =  -0.00
                               Iterations  =  49
                         Gamma iterations  =  13
                      Osmotic coefficient  =   3.72739
                         Density of water  =   0.99984
                                  Total H  = 6.886025e+01
                                  Total O  = 3.443013e+01

----------------------------Distribution of species----------------------------

                                                    MacInnes  MacInnes
                                MacInnes       Log       Log       Log    mole V
   Species          Molality    Activity  Molality  Activity     Gamma   cm3/mol

   H+              1.688e-06   1.179e-03    -5.773    -2.929     2.844      0.00
   OH-             1.350e-10   3.171e-13    -9.870   -12.499    -2.629     15.07
   H2O             5.551e+01   3.244e-01     1.744    -0.489     0.000     18.02
Cl            1.115e+01
   Cl-             1.115e+01   1.149e+01     1.047     1.060     0.013     21.41
Mg            5.541e+00
   Mg+2            5.541e+00   1.000e+03     0.744     5.719     4.976    -14.44
   MgOH+           1.711e-06   2.068e-05    -5.767    -4.684     1.082     (0)  
Na            6.973e-02
   Na+             6.973e-02   3.043e+00    -1.157     0.483     1.640      5.36

------------------------------Saturation indices-------------------------------

	Phase               SI   log IAP   log K(273 K,   1 atm)

	Bischofite       -0.00      4.91    4.91  MgCl2:6H2O
	Brucite          -8.07    -19.28  -11.21  Mg(OH)2
	H2O(g)           -2.70     -0.49    2.21  H2O
	Halite            0.00      1.54    1.54  NaCl
	MgCl2_2H2O       -9.97      6.86   16.83  MgCl2:2H2O
	MgCl2_4H2O       -1.60      5.88    7.48  MgCl2:4H2O


Reaction step 11.

Using solution 1.	
Using pure phase assemblage 1.	
Using reaction 1.	

Reaction 1.	

	  7.645e+00 moles of the following reaction have been added:

	                 Relative
	Reactant            moles

	MgCl2                1.00000

	                 Relative
	Element             moles
	Cl                   2.00000
	Mg                   1.00000

-------------------------------Phase assemblage--------------------------------

                                                      Moles in assemblage
Phase               SI  log IAP  log K(T, P)   Initial       Final       Delta

Bischofite        0.00     4.91      4.91    0.000e+00   5.246e+00   5.246e+00
Halite            0.00     1.54      1.54    1.000e+01   1.600e+01   5.998e+00

-----------------------------Solution composition------------------------------

	Elements           Molality       Moles

	Cl                1.115e+01   4.828e+00
	Mg                5.541e+00   2.399e+00
	Na                6.973e-02   3.019e-02

----------------------------Description of solution----------------------------

                                       pH  =   2.930      Charge balance
                                       pe  =   4.000      Adjusted to redox equilibrium
       Specific Conductance (uS/cm, 0 oC) = 722666
                          Density (g/cm3)  =   1.32122
                               Volume (L)  =   0.50190
                        Activity of water  =   0.324
                           Ionic strength  =   1.669e+01
                       Mass of water (kg)  =   4.329e-01
                 Total alkalinity (eq/kg)  =   3.385e-08
                    Total carbon (mol/kg)  =   0.000e+00
                       Total CO2 (mol/kg)  =   0.000e+00
                      Temperature (deg C)  =   0.00
                  Electrical balance (eq)  =  -5.358e-12
 Percent error, 100*(Cat-|An|)/(Cat+|An|)  =  -0.00
                               Iterations  =  44
                         Gamma iterations  =  11
                      Osmotic coefficient  =   3.72739
                         Density of water  =   0.99984
                                  Total H  = 4.806185e+01
                                  Total O  = 2.403093e+01

----------------------------Distribution of species----------------------------

                                                    MacInnes  MacInnes
                                MacInnes       Log       Log       Log    mole V
   Species          Molality    Activity  Molality  Activity     Gamma   cm3/mol

   H+              1.683e-06   1.175e-03    -5.774    -2.930     2.844      0.00
   OH-             1.354e-10   3.181e-13    -9.868   -12.498    -2.629     15.07
   H2O             5.551e+01   3.244e-01     1.744    -0.489     0.000     18.02
Cl            1.115e+01
   Cl-             1.115e+01   1.149e+01     1.047     1.060     0.013     21.41
Mg            5.541e+00
   Mg+2            5.541e+00   1.000e+03     0.744     5.719     4.976    -14.44
   MgOH+           1.717e-06   2.074e-05    -5.765    -4.683     1.082     (0)  
Na            6.973e-02
   Na+             6.973e-02   3.043e+00    -1.157     0.483     1.640      5.36

------------------------------Saturation indices-------------------------------

	Phase               SI   log IAP   log K(273 K,   1 atm)

	Bischofite        0.00      4.91    4.91  MgCl2:6H2O
	Brucite          -8.07    -19.28  -11.21  Mg(OH)2
	H2O(g)           -2.70     -0.49    2.21  H2O
	Halite            0.00      1.54    1.54  NaCl
	MgCl2_2H2O       -9.97      6.86   16.83  MgCl2:2H2O
	MgCl2_4H2O       -1.60      5.88    7.48  MgCl2:4H2O


Reaction step 12.

Using solution 1.	
Using pure phase assemblage 1.	
Using reaction 1.	

Reaction 1.	

	  8.340e+00 moles of the following reaction have been added:

	                 Relative
	Reactant            moles

	MgCl2                1.00000

	                 Relative
	Element             moles
	Cl                   2.00000
	Mg                   1.00000

-------------------------------Phase assemblage--------------------------------

                                                      Moles in assemblage
Phase               SI  log IAP  log K(T, P)   Initial       Final       Delta

Bischofite       -0.00     4.91      4.91    0.000e+00   6.979e+00   6.979e+00
Halite            0.00     1.54      1.54    1.000e+01   1.601e+01   6.012e+00

-----------------------------Solution composition------------------------------

	Elements           Molality       Moles

	Cl                1.115e+01   2.739e+00
	Mg                5.541e+00   1.361e+00
	Na                6.973e-02   1.712e-02

----------------------------Description of solution----------------------------

                                       pH  =   2.933      Charge balance
                                       pe  =   4.000      Adjusted to redox equilibrium
       Specific Conductance (uS/cm, 0 oC) = 722666
                          Density (g/cm3)  =   1.32126
                               Volume (L)  =   0.28470
                        Activity of water  =   0.324
                           Ionic strength  =   1.669e+01
                       Mass of water (kg)  =   2.456e-01
                 Total alkalinity (eq/kg)  =   5.967e-08
                    Total carbon (mol/kg)  =   0.000e+00
                       Total CO2 (mol/kg)  =   0.000e+00
                      Temperature (deg C)  =   0.00
                  Electrical balance (eq)  =  -2.806e-12
 Percent error, 100*(Cat-|An|)/(Cat+|An|)  =  -0.00
                               Iterations  =  60
                         Gamma iterations  =  11
                      Osmotic coefficient  =   3.72739
                         Density of water  =   0.99984
                                  Total H  = 2.726345e+01
                                  Total O  = 1.363172e+01

----------------------------Distribution of species----------------------------

                                                    MacInnes  MacInnes
                                MacInnes       Log       Log       Log    mole V
   Species          Molality    Activity  Molality  Activity     Gamma   cm3/mol

   H+              1.670e-06   1.166e-03    -5.777    -2.933     2.844      0.00
   OH-             1.365e-10   3.205e-13    -9.865   -12.494    -2.629     15.06
   H2O             5.551e+01   3.244e-01     1.744    -0.489     0.000     18.02
Cl            1.115e+01
   Cl-             1.115e+01   1.149e+01     1.047     1.060     0.013     21.41
Mg            5.541e+00
   Mg+2            5.541e+00   1.000e+03     0.744     5.719     4.976    -14.44
   MgOH+           1.730e-06   2.090e-05    -5.762    -4.680     1.082     (0)  
Na            6.973e-02
   Na+             6.973e-02   3.043e+00    -1.157     0.483     1.640      5.36

------------------------------Saturation indices-------------------------------

	Phase               SI   log IAP   log K(273 K,   1 atm)

	Bischofite       -0.00      4.91    4.91  MgCl2:6H2O
	Brucite          -8.06    -19.27  -11.21  Mg(OH)2
	H2O(g)           -2.70     -0.49    2.21  H2O
	Halite            0.00      1.54    1.54  NaCl
	MgCl2_2H2O       -9.97      6.86   16.83  MgCl2:2H2O
	MgCl2_4H2O       -1.60      5.88    7.48  MgCl2:4H2O


Reaction step 13.

Using solution 1.	
Using pure phase assemblage 1.	
Using reaction 1.	

Reaction 1.	

	  9.035e+00 moles of the following reaction have been added:

	                 Relative
	Reactant            moles

	MgCl2                1.00000

	                 Relative
	Element             moles
	Cl                   2.00000
	Mg                   1.00000

-------------------------------Phase assemblage--------------------------------

                                                      Moles in assemblage
Phase               SI  log IAP  log K(T, P)   Initial       Final       Delta

Bischofite        0.00     4.91      4.91    0.000e+00   8.712e+00   8.712e+00
Halite            0.00     1.54      1.54    1.000e+01   1.602e+01   6.025e+00

-----------------------------Solution composition------------------------------

	Elements           Molality       Moles

	Cl                1.115e+01   6.495e-01
	Mg                5.541e+00   3.227e-01
	Na                6.973e-02   4.061e-03

----------------------------Description of solution----------------------------

                                       pH  =   2.958      Charge balance
                                       pe  =   4.000      Adjusted to redox equilibrium
       Specific Conductance (uS/cm, 0 oC) = 722666
                          Density (g/cm3)  =   1.32124
                               Volume (L)  =   0.06751
                        Activity of water  =   0.324
                           Ionic strength  =   1.669e+01
                       Mass of water (kg)  =   5.824e-02
                 Total alkalinity (eq/kg)  =   2.516e-07
                    Total carbon (mol/kg)  =   0.000e+00
                       Total CO2 (mol/kg)  =   0.000e+00
                      Temperature (deg C)  =   0.00
                  Electrical balance (eq)  =  -1.809e-09
 Percent error, 100*(Cat-|An|)/(Cat+|An|)  =  -0.00
                               Iterations  =  91
                         Gamma iterations  =  16
                      Osmotic coefficient  =   3.72739
                         Density of water  =   0.99984
                                  Total H  = 6.465045e+00
                                  Total O  = 3.232523e+00

----------------------------Distribution of species----------------------------

                                                    MacInnes  MacInnes
                                MacInnes       Log       Log       Log    mole V
   Species          Molality    Activity  Molality  Activity     Gamma   cm3/mol

   H+              1.579e-06   1.102e-03    -5.802    -2.958     2.844      0.00
   OH-             1.444e-10   3.391e-13    -9.841   -12.470    -2.629     15.07
   H2O             5.551e+01   3.244e-01     1.744    -0.489     0.000     18.02
Cl            1.115e+01
   Cl-             1.115e+01   1.149e+01     1.047     1.060     0.013     21.41
Mg            5.541e+00
   Mg+2            5.541e+00   1.000e+03     0.744     5.719     4.976    -14.44
   MgOH+           1.830e-06   2.212e-05    -5.738    -4.655     1.082     (0)  
Na            6.973e-02
   Na+             6.973e-02   3.043e+00    -1.157     0.483     1.640      5.36

------------------------------Saturation indices-------------------------------

	Phase               SI   log IAP   log K(273 K,   1 atm)

	Bischofite        0.00      4.91    4.91  MgCl2:6H2O
	Brucite          -8.01    -19.22  -11.21  Mg(OH)2
	H2O(g)           -2.70     -0.49    2.21  H2O
	Halite            0.00      1.54    1.54  NaCl
	MgCl2_2H2O       -9.97      6.86   16.83  MgCl2:2H2O
	MgCl2_4H2O       -1.60      5.88    7.48  MgCl2:4H2O


Reaction step 14.

Using solution 1.	
Using pure phase assemblage 1.	
Using reaction 1.	

Reaction 1.	

	  9.730e+00 moles of the following reaction have been added:

	                 Relative
	Reactant            moles

	MgCl2                1.00000

	                 Relative
	Element             moles
	Cl                   2.00000
	Mg                   1.00000

-------------------------------Phase assemblage--------------------------------

                                                      Moles in assemblage
Phase               SI  log IAP  log K(T, P)   Initial       Final       Delta

Bischofite       -0.00     4.91      4.91    0.000e+00   7.959e+00   7.959e+00
Halite            0.00     1.54      1.54    1.000e+01   1.603e+01   6.029e+00

-----------------------------Solution composition------------------------------

	Elements           Molality       Moles

	Cl                2.536e+01   3.542e+00
	Mg                1.268e+01   1.771e+00
	Na                2.861e-06   3.996e-07

----------------------------Description of solution----------------------------

                                       pH  =  -1.452      Charge balance
                                       pe  =   4.000      Adjusted to redox equilibrium
       Specific Conductance (uS/cm, 0 oC) = 1643526
                          Density (g/cm3)  =   1.43020
                               Volume (L)  =   0.21557
                        Activity of water  =   0.002
                           Ionic strength  =   3.804e+01
                       Mass of water (kg)  =   1.397e-01
                 Total alkalinity (eq/kg)  =   1.049e-07
                    Total carbon (mol/kg)  =   0.000e+00
                       Total CO2 (mol/kg)  =   0.000e+00
                      Temperature (deg C)  =   0.00
                  Electrical balance (eq)  =  -7.728e-12
 Percent error, 100*(Cat-|An|)/(Cat+|An|)  =  -0.00
                               Iterations  =  75
                         Gamma iterations  =  75
                      Osmotic coefficient  =   9.45325
                         Density of water  =   0.99984
                                  Total H  = 1.550602e+01
                                  Total O  = 7.753012e+00

----------------------------Distribution of species----------------------------

                                                    MacInnes  MacInnes
                                MacInnes       Log       Log       Log    mole V
   Species          Molality    Activity  Molality  Activity     Gamma   cm3/mol

   H+              3.261e-06   2.833e+01    -5.487     1.452     6.939      0.00
   OH-             1.592e-14   6.247e-20   -13.798   -19.204    -5.406     39.91
   H2O             5.551e+01   1.536e-03     1.744    -2.814     0.000     18.02
Cl            2.536e+01
   Cl-             2.536e+01   1.870e+02     1.404     2.272     0.868     25.44
Mg            1.268e+01
   Mg+2            1.268e+01   1.000e+03     1.103    17.244    16.141     -8.04
   MgOH+           3.366e-06   1.365e+00    -5.473     0.135     5.608     (0)  
Na            2.861e-06
   Na+             2.861e-06   1.870e-01    -5.543    -0.728     4.815     12.17

------------------------------Saturation indices-------------------------------

	Phase               SI   log IAP   log K(273 K,   1 atm)

	Bischofite       -0.00      4.91    4.91  MgCl2:6H2O
	Brucite          -9.96    -21.16  -11.21  Mg(OH)2
	H2O(g)           -5.02     -2.81    2.21  H2O
	Halite            0.00      1.54    1.54  NaCl
	MgCl2_2H2O       -0.67     16.16   16.83  MgCl2:2H2O
	MgCl2_4H2O        3.05     10.53    7.48  MgCl2:4H2O


Reaction step 15.

Using solution 1.	
Using pure phase assemblage 1.	
Using reaction 1.	

Reaction 1.	

	  1.043e+01 moles of the following reaction have been added:

	                 Relative
	Reactant            moles

	MgCl2                1.00000

	                 Relative
	Element             moles
	Cl                   2.00000
	Mg                   1.00000

-------------------------------Phase assemblage--------------------------------

                                                      Moles in assemblage
Phase               SI  log IAP  log K(T, P)   Initial       Final       Delta

Bischofite        0.00     4.91      4.91    0.000e+00   6.084e+00   6.084e+00
Halite           -0.00     1.54      1.54    1.000e+01   1.603e+01   6.029e+00

-----------------------------Solution composition------------------------------

	Elements           Molality       Moles

	Cl                2.536e+01   8.682e+00
	Mg                1.268e+01   4.341e+00
	Na                2.861e-06   9.795e-07

----------------------------Description of solution----------------------------

                                       pH  =  -1.456      Charge balance
                                       pe  =   4.000      Adjusted to redox equilibrium
       Specific Conductance (uS/cm, 0 oC) = 1643526
                          Density (g/cm3)  =   1.43048
                               Volume (L)  =   0.52827
                        Activity of water  =   0.002
                           Ionic strength  =   3.804e+01
                       Mass of water (kg)  =   3.424e-01
                 Total alkalinity (eq/kg)  =   4.281e-08
                    Total carbon (mol/kg)  =   0.000e+00
                       Total CO2 (mol/kg)  =   0.000e+00
                      Temperature (deg C)  =   0.00
                  Electrical balance (eq)  =  -1.630e-11
 Percent error, 100*(Cat-|An|)/(Cat+|An|)  =  -0.00
                               Iterations  =  54
                         Gamma iterations  =  54
                      Osmotic coefficient  =   9.45325
                         Density of water  =   0.99984
                                  Total H  = 3.800602e+01
                                  Total O  = 1.900301e+01

----------------------------Distribution of species----------------------------

                                                    MacInnes  MacInnes
                                MacInnes       Log       Log       Log    mole V
   Species          Molality    Activity  Molality  Activity     Gamma   cm3/mol

   H+              3.292e-06   2.860e+01    -5.483     1.456     6.939      0.00
   OH-             1.578e-14   6.189e-20   -13.802   -19.208    -5.406     39.87
   H2O             5.551e+01   1.536e-03     1.744    -2.814     0.000     18.02
Cl            2.536e+01
   Cl-             2.536e+01   1.870e+02     1.404     2.272     0.868     25.43
Mg            1.268e+01
   Mg+2            1.268e+01   1.000e+03     1.103    17.244    16.141     -8.05
   MgOH+           3.335e-06   1.352e+00    -5.477     0.131     5.608     (0)  
Na            2.861e-06
   Na+             2.861e-06   1.870e-01    -5.543    -0.728     4.815     12.16

------------------------------Saturation indices-------------------------------

	Phase               SI   log IAP   log K(273 K,   1 atm)

	Bischofite        0.00      4.91    4.91  MgCl2:6H2O
	Brucite          -9.97    -21.17  -11.21  Mg(OH)2
	H2O(g)           -5.02     -2.81    2.21  H2O
	Halite           -0.00      1.54    1.54  NaCl
	MgCl2_2H2O       -0.67     16.16   16.83  MgCl2:2H2O
	MgCl2_4H2O        3.05     10.53    7.48  MgCl2:4H2O


Reaction step 16.

Using solution 1.	
Using pure phase assemblage 1.	
Using reaction 1.	

Reaction 1.	

	  1.112e+01 moles of the following reaction have been added:

	                 Relative
	Reactant            moles

	MgCl2                1.00000

	                 Relative
	Element             moles
	Cl                   2.00000
	Mg                   1.00000

-------------------------------Phase assemblage--------------------------------

                                                      Moles in assemblage
Phase               SI  log IAP  log K(T, P)   Initial       Final       Delta

Bischofite       -0.00     4.91      4.91    0.000e+00   4.209e+00   4.209e+00
Halite            0.00     1.54      1.54    1.000e+01   1.603e+01   6.029e+00

-----------------------------Solution composition------------------------------

	Elements           Molality       Moles

	Cl                2.536e+01   1.382e+01
	Mg                1.268e+01   6.911e+00
	Na                2.861e-06   1.559e-06

----------------------------Description of solution----------------------------

                                       pH  =  -1.457      Charge balance
                                       pe  =   4.000      Adjusted to redox equilibrium
       Specific Conductance (uS/cm, 0 oC) = 1643526
                          Density (g/cm3)  =   1.43013
                               Volume (L)  =   0.84122
                        Activity of water  =   0.002
                           Ionic strength  =   3.804e+01
                       Mass of water (kg)  =   5.450e-01
                 Total alkalinity (eq/kg)  =   2.689e-08
                    Total carbon (mol/kg)  =   0.000e+00
                       Total CO2 (mol/kg)  =   0.000e+00
                      Temperature (deg C)  =   0.00
                  Electrical balance (eq)  =  -2.454e-11
 Percent error, 100*(Cat-|An|)/(Cat+|An|)  =  -0.00
                               Iterations  =  51
                         Gamma iterations  =  51
                      Osmotic coefficient  =   9.45325
                         Density of water  =   0.99984
                                  Total H  = 6.050602e+01
                                  Total O  = 3.025301e+01

----------------------------Distribution of species----------------------------

                                                    MacInnes  MacInnes
                                MacInnes       Log       Log       Log    mole V
   Species          Molality    Activity  Molality  Activity     Gamma   cm3/mol

   H+              3.300e-06   2.867e+01    -5.481     1.457     6.939      0.00
   OH-             1.574e-14   6.174e-20   -13.803   -19.209    -5.406     39.92
   H2O             5.551e+01   1.536e-03     1.744    -2.814     0.000     18.02
Cl            2.536e+01
   Cl-             2.536e+01   1.870e+02     1.404     2.272     0.868     25.44
Mg            1.268e+01
   Mg+2            1.268e+01   1.000e+03     1.103    17.244    16.141     -8.04
   MgOH+           3.327e-06   1.349e+00    -5.478     0.130     5.608     (0)  
Na            2.861e-06
   Na+             2.861e-06   1.870e-01    -5.543    -0.728     4.815     12.18

------------------------------Saturation indices-------------------------------

	Phase               SI   log IAP   log K(273 K,   1 atm)

	Bischofite       -0.00      4.91    4.91  MgCl2:6H2O
	Brucite          -9.97    -21.17  -11.21  Mg(OH)2
	H2O(g)           -5.02     -2.81    2.21  H2O
	Halite            0.00      1.54    1.54  NaCl
	MgCl2_2H2O       -0.67     16.16   16.83  MgCl2:2H2O
	MgCl2_4H2O        3.05     10.53    7.48  MgCl2:4H2O


Reaction step 17.

Using solution 1.	
Using pure phase assemblage 1.	
Using reaction 1.	

Reaction 1.	

	  1.182e+01 moles of the following reaction have been added:

	                 Relative
	Reactant            moles

	MgCl2                1.00000

	                 Relative
	Element             moles
	Cl                   2.00000
	Mg                   1.00000

-------------------------------Phase assemblage--------------------------------

                                                      Moles in assemblage
Phase               SI  log IAP  log K(T, P)   Initial       Final       Delta

Bischofite        0.00     4.91      4.91    0.000e+00   2.334e+00   2.334e+00
Halite            0.00     1.54      1.54    1.000e+01   1.603e+01   6.029e+00

-----------------------------Solution composition------------------------------

	Elements           Molality       Moles

	Cl                2.536e+01   1.896e+01
	Mg                1.268e+01   9.481e+00
	Na                2.861e-06   2.139e-06

----------------------------Description of solution----------------------------

                                       pH  =  -1.458      Charge balance
                                       pe  =   4.000      Adjusted to redox equilibrium
       Specific Conductance (uS/cm, 0 oC) = 1643526
                          Density (g/cm3)  =   1.43025
                               Volume (L)  =   1.15394
                        Activity of water  =   0.002
                           Ionic strength  =   3.804e+01
                       Mass of water (kg)  =   7.477e-01
                 Total alkalinity (eq/kg)  =   1.960e-08
                    Total carbon (mol/kg)  =   0.000e+00
                       Total CO2 (mol/kg)  =   0.000e+00
                      Temperature (deg C)  =   0.00
                  Electrical balance (eq)  =   4.359e-11
 Percent error, 100*(Cat-|An|)/(Cat+|An|)  =   0.00
                               Iterations  =  56
                         Gamma iterations  =  56
                      Osmotic coefficient  =   9.45325
                         Density of water  =   0.99984
                                  Total H  = 8.300602e+01
                                  Total O  = 4.150301e+01

----------------------------Distribution of species----------------------------

                                                    MacInnes  MacInnes
                                MacInnes       Log       Log       Log    mole V
   Species          Molality    Activity  Molality  Activity     Gamma   cm3/mol

   H+              3.304e-06   2.870e+01    -5.481     1.458     6.939      0.00
   OH-             1.572e-14   6.168e-20   -13.804   -19.210    -5.406     39.90
   H2O             5.551e+01   1.536e-03     1.744    -2.814     0.000     18.02
Cl            2.536e+01
   Cl-             2.536e+01   1.870e+02     1.404     2.272     0.868     25.44
Mg            1.268e+01
   Mg+2            1.268e+01   1.000e+03     1.103    17.244    16.141     -8.04
   MgOH+           3.323e-06   1.347e+00    -5.478     0.130     5.608     (0)  
Na            2.861e-06
   Na+             2.861e-06   1.870e-01    -5.543    -0.728     4.815     12.17

------------------------------Saturation indices-------------------------------

	Phase               SI   log IAP   log K(273 K,   1 atm)

	Bischofite        0.00      4.91    4.91  MgCl2:6H2O
	Brucite          -9.97    -21.18  -11.21  Mg(OH)2
	H2O(g)           -5.02     -2.81    2.21  H2O
	Halite            0.00      1.54    1.54  NaCl
	MgCl2_2H2O       -0.67     16.16   16.83  MgCl2:2H2O
	MgCl2_4H2O        3.05     10.53    7.48  MgCl2:4H2O


Reaction step 18.

Using solution 1.	
Using pure phase assemblage 1.	
Using reaction 1.	

Reaction 1.	

	  1.251e+01 moles of the following reaction have been added:

	                 Relative
	Reactant            moles

	MgCl2                1.00000

	                 Relative
	Element             moles
	Cl                   2.00000
	Mg                   1.00000

-------------------------------Phase assemblage--------------------------------

                                                      Moles in assemblage
Phase               SI  log IAP  log K(T, P)   Initial       Final       Delta

Bischofite       -0.00     4.91      4.91    0.000e+00   4.589e-01   4.589e-01
Halite           -0.00     1.54      1.54    1.000e+01   1.603e+01   6.029e+00

-----------------------------Solution composition------------------------------

	Elements           Molality       Moles

	Cl                2.536e+01   2.410e+01
	Mg                1.268e+01   1.205e+01
	Na                2.861e-06   2.719e-06

----------------------------Description of solution----------------------------

                                       pH  =  -1.458      Charge balance
                                       pe  =   4.000      Adjusted to redox equilibrium
       Specific Conductance (uS/cm, 0 oC) = 1643526
                          Density (g/cm3)  =   1.43009
                               Volume (L)  =   1.46690
                        Activity of water  =   0.002
                           Ionic strength  =   3.804e+01
                       Mass of water (kg)  =   9.504e-01
                 Total alkalinity (eq/kg)  =   1.542e-08
                    Total carbon (mol/kg)  =   0.000e+00
                       Total CO2 (mol/kg)  =   0.000e+00
                      Temperature (deg C)  =   0.00
                  Electrical balance (eq)  =   3.609e-11
 Percent error, 100*(Cat-|An|)/(Cat+|An|)  =   0.00
                               Iterations  =  59
                         Gamma iterations  =  59
                      Osmotic coefficient  =   9.45325
                         Density of water  =   0.99984
                                  Total H  = 1.055060e+02
                                  Total O  = 5.275301e+01

----------------------------Distribution of species----------------------------

                                                    MacInnes  MacInnes
                                MacInnes       Log       Log       Log    mole V
   Species          Molality    Activity  Molality  Activity     Gamma   cm3/mol

   H+              3.306e-06   2.872e+01    -5.481     1.458     6.939      0.00
   OH-             1.571e-14   6.164e-20   -13.804   -19.210    -5.406     39.92
   H2O             5.551e+01   1.536e-03     1.744    -2.814     0.000     18.02
Cl            2.536e+01
   Cl-             2.536e+01   1.870e+02     1.404     2.272     0.868     25.44
Mg            1.268e+01
   Mg+2            1.268e+01   1.000e+03     1.103    17.244    16.141     -8.04
   MgOH+           3.321e-06   1.347e+00    -5.479     0.129     5.608     (0)  
Na            2.861e-06
   Na+             2.861e-06   1.870e-01    -5.543    -0.728     4.815     12.18

------------------------------Saturation indices-------------------------------

	Phase               SI   log IAP   log K(273 K,   1 atm)

	Bischofite       -0.00      4.91    4.91  MgCl2:6H2O
	Brucite          -9.97    -21.18  -11.21  Mg(OH)2
	H2O(g)           -5.02     -2.81    2.21  H2O
	Halite           -0.00      1.54    1.54  NaCl
	MgCl2_2H2O       -0.67     16.16   16.83  MgCl2:2H2O
	MgCl2_4H2O        3.05     10.53    7.48  MgCl2:4H2O


Reaction step 19.

Using solution 1.	
Using pure phase assemblage 1.	
Using reaction 1.	

Reaction 1.	

	  1.321e+01 moles of the following reaction have been added:

	                 Relative
	Reactant            moles

	MgCl2                1.00000

	                 Relative
	Element             moles
	Cl                   2.00000
	Mg                   1.00000

-------------------------------Phase assemblage--------------------------------

                                                      Moles in assemblage
Phase               SI  log IAP  log K(T, P)   Initial       Final       Delta

Bischofite       -0.46     4.45      4.91    0.000e+00           0   0.000e+00
Halite           -0.00     1.54      1.54    1.000e+01   1.603e+01   6.029e+00

-----------------------------Solution composition------------------------------

	Elements           Molality       Moles

	Cl                2.641e+01   2.641e+01
	Mg                1.321e+01   1.320e+01
	Na                1.278e-06   1.278e-06

----------------------------Description of solution----------------------------

                                       pH  =  -1.721      Charge balance
                                       pe  =   4.000      Adjusted to redox equilibrium
       Specific Conductance (uS/cm, 0 oC) = 1711562
                          Density (g/cm3)  =   1.42953
                               Volume (L)  =   1.57902
                        Activity of water  =   0.001
                           Ionic strength  =   3.962e+01
                       Mass of water (kg)  =   1.000e+00
                 Total alkalinity (eq/kg)  =   1.465e-08
                    Total carbon (mol/kg)  =   0.000e+00
                       Total CO2 (mol/kg)  =   0.000e+00
                      Temperature (deg C)  =   0.00
                  Electrical balance (eq)  =  -5.590e-11
 Percent error, 100*(Cat-|An|)/(Cat+|An|)  =  -0.00
                               Iterations  =  50
                         Gamma iterations  =  50
                      Osmotic coefficient  =   9.94637
                         Density of water  =   0.99984
                                  Total H  = 1.110124e+02
                                  Total O  = 5.550622e+01

----------------------------Distribution of species----------------------------

                                                    MacInnes  MacInnes
                                MacInnes       Log       Log       Log    mole V
   Species          Molality    Activity  Molality  Activity     Gamma   cm3/mol

   H+              3.053e-06   5.266e+01    -5.515     1.721     7.237      0.00
   OH-             7.550e-15   1.808e-20   -14.122   -19.743    -5.621     41.68
   H2O             5.551e+01   8.264e-04     1.744    -3.083     0.000     18.02
Cl            2.641e+01
   Cl-             2.641e+01   2.318e+02     1.422     2.365     0.943     25.71
Mg            1.321e+01
   Mg+2            1.320e+01   1.000e+03     1.121    18.213    17.092     -7.58
   MgOH+           3.068e-06   3.673e+00    -5.513     0.565     6.078     (0)  
Na            1.278e-06
   Na+             1.278e-06   1.508e-01    -5.894    -0.821     5.072     12.61

------------------------------Saturation indices-------------------------------

	Phase               SI   log IAP   log K(273 K,   1 atm)

	Bischofite       -0.46      4.45    4.91  MgCl2:6H2O
	Brucite         -10.07    -21.27  -11.21  Mg(OH)2
	H2O(g)           -5.29     -3.08    2.21  H2O
	Halite           -0.00      1.54    1.54  NaCl
	MgCl2_2H2O       -0.05     16.78   16.83  MgCl2:2H2O
	MgCl2_4H2O        3.13     10.61    7.48  MgCl2:4H2O


Reaction step 20.

Using solution 1.	
Using pure phase assemblage 1.	
Using reaction 1.	

Reaction 1.	

	  1.390e+01 moles of the following reaction have been added:

	                 Relative
	Reactant            moles

	MgCl2                1.00000

	                 Relative
	Element             moles
	Cl                   2.00000
	Mg                   1.00000

-------------------------------Phase assemblage--------------------------------

                                                      Moles in assemblage
Phase               SI  log IAP  log K(T, P)   Initial       Final       Delta

Bischofite       -1.18     3.72      4.91    0.000e+00           0   0.000e+00
Halite           -0.00     1.54      1.54    1.000e+01   1.603e+01   6.029e+00

-----------------------------Solution composition------------------------------

	Elements           Molality       Moles

	Cl                2.780e+01   2.780e+01
	Mg                1.390e+01   1.390e+01
	Na                4.337e-07   4.337e-07

----------------------------Description of solution----------------------------

                                       pH  =  -2.056      Charge balance
                                       pe  =   4.000      Adjusted to redox equilibrium
       Specific Conductance (uS/cm, 0 oC) = 1801644
                          Density (g/cm3)  =   1.42689
                               Volume (L)  =   1.62832
                        Activity of water  =   0.000
                           Ionic strength  =   4.170e+01
                       Mass of water (kg)  =   1.000e+00
                 Total alkalinity (eq/kg)  =   1.465e-08
                    Total carbon (mol/kg)  =   0.000e+00
                       Total CO2 (mol/kg)  =   0.000e+00
                      Temperature (deg C)  =   0.00
                  Electrical balance (eq)  =   1.048e-13
 Percent error, 100*(Cat-|An|)/(Cat+|An|)  =   0.00
                               Iterations  =  60
                         Gamma iterations  =  60
                      Osmotic coefficient  =  10.61427
                         Density of water  =   0.99984
                                  Total H  = 1.110124e+02
                                  Total O  = 5.550622e+01

----------------------------Distribution of species----------------------------

                                                    MacInnes  MacInnes
                                MacInnes       Log       Log       Log    mole V
   Species          Molality    Activity  Molality  Activity     Gamma   cm3/mol

   H+              2.667e-06   1.137e+02    -5.574     2.056     7.630      0.00
   OH-             2.817e-15   3.490e-21   -14.550   -20.457    -5.907     44.08
   H2O             5.551e+01   3.444e-04     1.744    -3.463     0.000     18.02
Cl            2.780e+01
   Cl-             2.780e+01   3.091e+02     1.444     2.490     1.046     26.07
Mg            1.390e+01
   Mg+2            1.390e+01   1.000e+03     1.143    19.520    18.377     -6.96
   MgOH+           2.681e-06   1.437e+01    -5.572     1.158     6.729     (0)  
Na            4.337e-07
   Na+             4.337e-07   1.131e-01    -6.363    -0.946     5.416     13.21

------------------------------Saturation indices-------------------------------

	Phase               SI   log IAP   log K(273 K,   1 atm)

	Bischofite       -1.18      3.72    4.91  MgCl2:6H2O
	Brucite         -10.19    -21.39  -11.21  Mg(OH)2
	H2O(g)           -5.67     -3.46    2.21  H2O
	Halite           -0.00      1.54    1.54  NaCl
	MgCl2_2H2O        0.74     17.57   16.83  MgCl2:2H2O
	MgCl2_4H2O        3.17     10.65    7.48  MgCl2:4H2O


------------------
End of simulation.
------------------

------------------------------------
Reading input data for simulation 2.
------------------------------------

	USE equilibrium_phases 1
	 USE reaction 1
	SOLUTION 1
	 Na 7 charge
	 Cl 7 Halite
	 temp 100
	USER_GRAPH 
	-headings x 100.oC SI_Bischofite
	END
-------------------------------------------
Beginning of initial solution calculations.
-------------------------------------------

Initial solution 1.	

-----------------------------Solution composition------------------------------

	Elements           Molality       Moles

	Cl                6.672e+00   6.672e+00  Equilibrium with Halite
	Na                6.672e+00   6.672e+00  Charge balance

----------------------------Description of solution----------------------------

                                       pH  =   7.000    
                                       pe  =   4.000    
       Specific Conductance (uS/cm, 100 oC) = 1776434
                          Density (g/cm3)  =   1.16916
                               Volume (L)  =   1.18882
                        Activity of water  =   0.741
                           Ionic strength  =   6.672e+00
                       Mass of water (kg)  =   1.000e+00
                 Total alkalinity (eq/kg)  =   1.266e-05
                    Total carbon (mol/kg)  =   0.000e+00
                       Total CO2 (mol/kg)  =   0.000e+00
                      Temperature (deg C)  = 100.00
                  Electrical balance (eq)  =  -7.268e-14
 Percent error, 100*(Cat-|An|)/(Cat+|An|)  =  -0.00
                               Iterations  =  15
                         Gamma iterations  =   5
                      Osmotic coefficient  =   1.24536
                         Density of water  =   0.95835
                                  Total H  = 1.110124e+02
                                  Total O  = 5.550623e+01

----------------------------Distribution of species----------------------------

                                                    MacInnes  MacInnes
                                MacInnes       Log       Log       Log    mole V
   Species          Molality    Activity  Molality  Activity     Gamma   cm3/mol

[...]
                                MacInnes       Log       Log       Log    mole V
   Species          Molality    Activity  Molality  Activity     Gamma   cm3/mol

   H+              1.722e-06   1.673e+01    -5.764     1.223     6.987      0.00
   OH-             2.951e-07   5.571e-14    -6.530   -13.254    -6.724     50.60
   H2O             5.551e+01   1.958e-01     1.744    -0.708     0.000     20.82
Cl            2.095e+01
   Cl-             2.095e+01   1.297e-02     1.321    -1.887    -3.208     32.18
Mg            1.043e+01
   Mg+2            1.042e+01   1.000e+03     1.018     9.546     8.528    -35.57
   MgOH+           1.289e-04   9.679e-01    -3.890    -0.014     3.875     (0)  
Na            1.037e-01
   Na+             1.037e-01   1.000e+03    -0.984     3.090     4.074      0.95

------------------------------Saturation indices-------------------------------

	Phase               SI   log IAP   log K(473 K,  11 atm)

	Bischofite       -0.97      1.52    2.50  MgCl2:6H2O
	Brucite          -7.39    -16.96   -9.57  Mg(OH)2
	H2O(g)            0.45     -0.71   -1.16  H2O
	Halite            0.00      1.20    1.20  NaCl
	MgCl2_2H2O       -1.01      4.36    5.37  MgCl2:2H2O
	MgCl2_4H2O       -0.50      2.94    3.44  MgCl2:4H2O


Reaction step 16.

Using solution 1.	
Using pure phase assemblage 1.	
Using reaction 1.	

Reaction 1.	

	  1.112e+01 moles of the following reaction have been added:

	                 Relative
	Reactant            moles

	MgCl2                1.00000

	                 Relative
	Element             moles
	Cl                   2.00000
	Mg                   1.00000

-------------------------------Phase assemblage--------------------------------

                                                      Moles in assemblage
Phase               SI  log IAP  log K(T, P)   Initial       Final       Delta

Halite            0.00     1.20      1.20    1.000e+01   1.790e+01   7.905e+00
MgCl2_2H2O       -0.77     4.60      5.36    0.000e+00           0   0.000e+00

-----------------------------Solution composition------------------------------

	Elements           Molality       Moles

	Cl                2.232e+01   2.232e+01
	Mg                1.112e+01   1.112e+01
	Na                8.388e-02   8.388e-02

----------------------------Description of solution----------------------------

                                       pH  =  -1.802      Charge balance
                                       pe  =   4.000      Adjusted to redox equilibrium
       Specific Conductance (uS/cm, 200 oC) = 8075287
                          Density (g/cm3)  =   1.38325
                               Volume (L)  =   1.49188
                        Activity of water  =   0.164
                           Ionic strength  =   3.344e+01
                       Mass of water (kg)  =   1.000e+00
                 Total alkalinity (eq/kg)  =   1.275e-04
                    Total carbon (mol/kg)  =   0.000e+00
                       Total CO2 (mol/kg)  =   0.000e+00
                      Temperature (deg C)  = 200.00
                           Pressure (atm)  = 11.40
                  Electrical balance (eq)  =  -7.693e-10
 Percent error, 100*(Cat-|An|)/(Cat+|An|)  =  -0.00
                               Iterations  =  63
                         Gamma iterations  =  18
                      Osmotic coefficient  =   2.98952
                         Density of water  =   0.86467
                                  Total H  = 1.110126e+02
                                  Total O  = 5.550634e+01

----------------------------Distribution of species----------------------------

                                                    MacInnes  MacInnes
                                MacInnes       Log       Log       Log    mole V
   Species          Molality    Activity  Molality  Activity     Gamma   cm3/mol

   H+              6.546e-07   6.345e+01    -6.184     1.802     7.987      0.00
   OH-             3.870e-07   1.231e-14    -6.412   -13.910    -7.497     54.21
   H2O             5.551e+01   1.644e-01     1.744    -0.784     0.000     20.82
Cl            2.232e+01
   Cl-             2.232e+01   3.507e-03     1.349    -2.455    -3.804     33.05
Mg            1.112e+01
   Mg+2            1.112e+01   1.000e+03     1.046    11.074    10.028    -36.11
   MgOH+           1.278e-04   7.222e+00    -3.894     0.859     4.752     (0)  
Na            8.388e-02
   Na+             8.388e-02   1.000e+03    -1.076     3.658     4.734      0.74

------------------------------Saturation indices-------------------------------

	Phase               SI   log IAP   log K(473 K,  11 atm)

	Bischofite       -1.04      1.46    2.50  MgCl2:6H2O
	Brucite          -7.17    -16.74   -9.57  Mg(OH)2
	H2O(g)            0.37     -0.78   -1.16  H2O
	Halite            0.00      1.20    1.20  NaCl
	MgCl2_2H2O       -0.77      4.60    5.36  MgCl2:2H2O
	MgCl2_4H2O       -0.42      3.03    3.44  MgCl2:4H2O


Reaction step 17.

Using solution 1.	
Using pure phase assemblage 1.	
Using reaction 1.	

Reaction 1.	

	  1.182e+01 moles of the following reaction have been added:

	                 Relative
	Reactant            moles

	MgCl2                1.00000

	                 Relative
	Element             moles
	Cl                   2.00000
	Mg                   1.00000

-------------------------------Phase assemblage--------------------------------

                                                      Moles in assemblage
Phase               SI  log IAP  log K(T, P)   Initial       Final       Delta

Halite            0.00     1.20      1.20    1.000e+01   1.792e+01   7.919e+00
MgCl2_2H2O       -0.55     4.82      5.36    0.000e+00           0   0.000e+00

-----------------------------Solution composition------------------------------

	Elements           Molality       Moles

	Cl                2.370e+01   2.370e+01
	Mg                1.182e+01   1.181e+01
	Na                6.997e-02   6.997e-02

----------------------------Description of solution----------------------------

                                       pH  =  -2.401      Charge balance
                                       pe  =   4.000      Adjusted to redox equilibrium
       Specific Conductance (uS/cm, 200 oC) = 8573463
                          Density (g/cm3)  =   1.39569
                               Volume (L)  =   1.52541
                        Activity of water  =   0.137
                           Ionic strength  =   3.551e+01
                       Mass of water (kg)  =   1.000e+00
                 Total alkalinity (eq/kg)  =   1.275e-04
                    Total carbon (mol/kg)  =   0.000e+00
                       Total CO2 (mol/kg)  =   0.000e+00
                      Temperature (deg C)  = 200.00
                           Pressure (atm)  = 11.40
                  Electrical balance (eq)  =  -1.452e-09
 Percent error, 100*(Cat-|An|)/(Cat+|An|)  =  -0.00
                               Iterations  =  72
                         Gamma iterations  =  20
                      Osmotic coefficient  =   3.09599
                         Density of water  =   0.86467
                                  Total H  = 1.110126e+02
                                  Total O  = 5.550634e+01

----------------------------Distribution of species----------------------------

                                                    MacInnes  MacInnes
                                MacInnes       Log       Log       Log    mole V
   Species          Molality    Activity  Molality  Activity     Gamma   cm3/mol

   OH-             5.463e-07   2.592e-15    -6.263   -14.586    -8.324     57.87
   H+              2.248e-07   2.518e+02    -6.648     2.401     9.049      0.00
   H2O             5.551e+01   1.374e-01     1.744    -0.862     0.000     20.82
Cl            2.370e+01
   Cl-             2.370e+01   8.317e-04     1.375    -3.080    -4.455     33.88
Mg            1.182e+01
   Mg+2            1.181e+01   1.000e+03     1.072    12.701    11.628    -36.68
   MgOH+           1.272e-04   6.438e+01    -3.896     1.809     5.704     (0)  
Na            6.997e-02
   Na+             6.997e-02   1.000e+03    -1.155     4.283     5.438      0.52

------------------------------Saturation indices-------------------------------

	Phase               SI   log IAP   log K(473 K,  11 atm)

	Bischofite       -1.13      1.37    2.50  MgCl2:6H2O
	Brucite          -6.90    -16.47   -9.57  Mg(OH)2
	H2O(g)            0.29     -0.86   -1.16  H2O
	Halite            0.00      1.20    1.20  NaCl
	MgCl2_2H2O       -0.55      4.82    5.36  MgCl2:2H2O
	MgCl2_4H2O       -0.35      3.09    3.44  MgCl2:4H2O


Reaction step 18.

Using solution 1.	
Using pure phase assemblage 1.	
Using reaction 1.	

Reaction 1.	

	  1.251e+01 moles of the following reaction have been added:

	                 Relative
	Reactant            moles

	MgCl2                1.00000

	                 Relative
	Element             moles
	Cl                   2.00000
	Mg                   1.00000

-------------------------------Phase assemblage--------------------------------

                                                      Moles in assemblage
Phase               SI  log IAP  log K(T, P)   Initial       Final       Delta

Halite            0.00     1.20      1.20    1.000e+01   1.793e+01   7.929e+00
MgCl2_2H2O       -0.35     5.02      5.36    0.000e+00           0   0.000e+00

-----------------------------Solution composition------------------------------

	Elements           Molality       Moles

	Cl                2.508e+01   2.508e+01
	Mg                1.251e+01   1.251e+01
	Na                6.020e-02   6.020e-02

----------------------------Description of solution----------------------------

                                       pH  =  -3.020      Charge balance
                                       pe  =   4.000      Adjusted to redox equilibrium
       Specific Conductance (uS/cm, 200 oC) = 9073050
                          Density (g/cm3)  =   1.40688
                               Volume (L)  =   1.55991
                        Activity of water  =   0.115
                           Ionic strength  =   3.759e+01
                       Mass of water (kg)  =   1.000e+00
                 Total alkalinity (eq/kg)  =   1.275e-04
                    Total carbon (mol/kg)  =   0.000e+00
                       Total CO2 (mol/kg)  =   0.000e+00
                      Temperature (deg C)  = 200.00
                           Pressure (atm)  = 11.40
                  Electrical balance (eq)  =   6.367e-10
 Percent error, 100*(Cat-|An|)/(Cat+|An|)  =   0.00
                               Iterations  =  84
                         Gamma iterations  =  23
                      Osmotic coefficient  =   3.19439
                         Density of water  =   0.86467
                                  Total H  = 1.110126e+02
                                  Total O  = 5.550634e+01

----------------------------Distribution of species----------------------------

                                                    MacInnes  MacInnes
                                MacInnes       Log       Log       Log    mole V
   Species          Molality    Activity  Molality  Activity     Gamma   cm3/mol

   OH-             8.284e-07   5.188e-16    -6.082   -15.285    -9.203     61.40
   H+              7.009e-08   1.000e+03    -7.154     3.020    10.175      0.00
   H2O             5.551e+01   1.146e-01     1.744    -0.941     0.000     20.82
Cl            2.508e+01
   Cl-             2.508e+01   1.731e-04     1.399    -3.762    -5.161     34.68
Mg            1.251e+01
   Mg+2            1.251e+01   1.000e+03     1.097    14.425    13.327    -37.21
   MgOH+           1.268e-04   6.831e+02    -3.897     2.834     6.731     (0)  
Na            6.020e-02
   Na+             6.020e-02   1.000e+03    -1.220     4.964     6.185      0.31

------------------------------Saturation indices-------------------------------

	Phase               SI   log IAP   log K(473 K,  11 atm)

	Bischofite       -1.24      1.26    2.50  MgCl2:6H2O
	Brucite          -6.57    -16.15   -9.57  Mg(OH)2
	H2O(g)            0.21     -0.94   -1.16  H2O
	Halite            0.00      1.20    1.20  NaCl
	MgCl2_2H2O       -0.35      5.02    5.36  MgCl2:2H2O
	MgCl2_4H2O       -0.30      3.14    3.44  MgCl2:4H2O


Reaction step 19.

Using solution 1.	
Using pure phase assemblage 1.	
Using reaction 1.	

Reaction 1.	

	  1.321e+01 moles of the following reaction have been added:

	                 Relative
	Reactant            moles

	MgCl2                1.00000

	                 Relative
	Element             moles
	Cl                   2.00000
	Mg                   1.00000

-------------------------------Phase assemblage--------------------------------

                                                      Moles in assemblage
Phase               SI  log IAP  log K(T, P)   Initial       Final       Delta

Halite            0.00     1.20      1.20    1.000e+01   1.794e+01   7.935e+00
MgCl2_2H2O       -0.16     5.20      5.36    0.000e+00           0   0.000e+00

-----------------------------Solution composition------------------------------

	Elements           Molality       Moles

	Cl                2.646e+01   2.646e+01
	Mg                1.320e+01   1.320e+01
	Na                5.343e-02   5.343e-02

----------------------------Description of solution----------------------------

                                       pH  =  -3.661      Charge balance
                                       pe  =   4.000      Adjusted to redox equilibrium
       Specific Conductance (uS/cm, 200 oC) = 9573661
                          Density (g/cm3)  =   1.41736
                               Volume (L)  =   1.59478
                        Activity of water  =   0.095
                           Ionic strength  =   3.967e+01
                       Mass of water (kg)  =   1.000e+00
                 Total alkalinity (eq/kg)  =   1.275e-04
                    Total carbon (mol/kg)  =   0.000e+00
                       Total CO2 (mol/kg)  =   0.000e+00
                      Temperature (deg C)  = 200.00
                           Pressure (atm)  = 11.40
                  Electrical balance (eq)  =  -1.360e-09
 Percent error, 100*(Cat-|An|)/(Cat+|An|)  =  -0.00
                               Iterations  =  93
                         Gamma iterations  =  26
                      Osmotic coefficient  =   3.28462
                         Density of water  =   0.86467
                                  Total H  = 1.110126e+02
                                  Total O  = 5.550634e+01

----------------------------Distribution of species----------------------------

                                                    MacInnes  MacInnes
                                MacInnes       Log       Log       Log    mole V
   Species          Molality    Activity  Molality  Activity     Gamma   cm3/mol

   OH-             1.347e-06   9.855e-17    -5.871   -16.006   -10.136     64.96
   H+              1.990e-08   1.000e+03    -7.701     3.661    11.363      0.00
   H2O             5.551e+01   9.532e-02     1.744    -1.021     0.000     20.82
Cl            2.646e+01
   Cl-             2.646e+01   3.163e-05     1.423    -4.500    -5.922     35.44
Mg            1.320e+01
   Mg+2            1.320e+01   1.000e+03     1.121    16.246    15.125    -37.77
   MgOH+           1.262e-04   1.000e+03    -3.899     3.935     7.834     (0)  
Na            5.343e-02
   Na+             5.343e-02   1.000e+03    -1.272     5.703     6.975      0.11

------------------------------Saturation indices-------------------------------

	Phase               SI   log IAP   log K(473 K,  11 atm)

	Bischofite       -1.37      1.12    2.50  MgCl2:6H2O
	Brucite          -6.19    -15.77   -9.57  Mg(OH)2
	H2O(g)            0.13     -1.02   -1.16  H2O
	Halite            0.00      1.20    1.20  NaCl
	MgCl2_2H2O       -0.16      5.20    5.36  MgCl2:2H2O
	MgCl2_4H2O       -0.28      3.16    3.44  MgCl2:4H2O


Reaction step 20.

Using solution 1.	
Using pure phase assemblage 1.	
Using reaction 1.	

Reaction 1.	

	  1.390e+01 moles of the following reaction have been added:

	                 Relative
	Reactant            moles

	MgCl2                1.00000

	                 Relative
	Element             moles
	Cl                   2.00000
	Mg                   1.00000

-------------------------------Phase assemblage--------------------------------

                                                      Moles in assemblage
Phase               SI  log IAP  log K(T, P)   Initial       Final       Delta

Halite            0.00     1.20      1.20    1.000e+01   1.794e+01   7.940e+00
MgCl2_2H2O        0.00     5.36      5.36    0.000e+00   6.937e-02   6.937e-02

-----------------------------Solution composition------------------------------

	Elements           Molality       Moles

	Cl                2.778e+01   2.771e+01
	Mg                1.387e+01   1.383e+01
	Na                4.910e-02   4.898e-02

----------------------------Description of solution----------------------------

                                       pH  =  -4.291      Charge balance
                                       pe  =   4.000      Adjusted to redox equilibrium
       Specific Conductance (uS/cm, 200 oC) = 10049986
                          Density (g/cm3)  =   1.42646
                               Volume (L)  =   1.62443
                        Activity of water  =   0.080
                           Ionic strength  =   4.164e+01
                       Mass of water (kg)  =   9.975e-01
                 Total alkalinity (eq/kg)  =   1.278e-04
                    Total carbon (mol/kg)  =   0.000e+00
                       Total CO2 (mol/kg)  =   0.000e+00
                      Temperature (deg C)  = 200.00
                           Pressure (atm)  = 11.40
                  Electrical balance (eq)  =  -2.513e-10
 Percent error, 100*(Cat-|An|)/(Cat+|An|)  =  -0.00
                               Iterations  =  98
                         Gamma iterations  =  29
                      Osmotic coefficient  =   3.36272
                         Density of water  =   0.86467
                                  Total H  = 1.107351e+02
                                  Total O  = 5.536760e+01

----------------------------Distribution of species----------------------------

                                                    MacInnes  MacInnes
                                MacInnes       Log       Log       Log    mole V
   Species          Molality    Activity  Molality  Activity     Gamma   cm3/mol

   OH-             2.283e-06   1.940e-17    -5.641   -16.712   -11.071     68.29
   H+              5.522e-09   1.000e+03    -8.258     4.291    12.549      0.00
   H2O             5.551e+01   7.999e-02     1.744    -1.097     0.000     20.82
Cl            2.778e+01
   Cl-             2.778e+01   5.579e-06     1.444    -5.253    -6.697     36.14
Mg            1.387e+01
   Mg+2            1.387e+01   1.000e+03     1.142    18.065    16.923    -38.30
   MgOH+           1.256e-04   1.000e+03    -3.901     5.049     8.950     (0)  
Na            4.910e-02
   Na+             4.910e-02   1.000e+03    -1.309     6.456     7.765     -0.09

------------------------------Saturation indices-------------------------------

	Phase               SI   log IAP   log K(473 K,  11 atm)

	Bischofite       -1.52      0.98    2.50  MgCl2:6H2O
	Brucite          -5.79    -15.36   -9.57  Mg(OH)2
	H2O(g)            0.06     -1.10   -1.16  H2O
	Halite            0.00      1.20    1.20  NaCl
	MgCl2_2H2O        0.00      5.36    5.36  MgCl2:2H2O
	MgCl2_4H2O       -0.27      3.17    3.44  MgCl2:4H2O


------------------
End of simulation.
------------------

------------------------------------
Reading input data for simulation 4.
------------------------------------

------------------------------
End of Run after 0.96 Seconds.
------------------------------

