   Input file: NH4_2_SO4
  Output file: NH4_2_SO4.out
Database file: ../database/Amm.dat

------------------
Reading data base.
------------------

	SOLUTION_MASTER_SPECIES
	SOLUTION_SPECIES
	PHASES
	EXCHANGE_MASTER_SPECIES
	EXCHANGE_SPECIES
	SURFACE_MASTER_SPECIES
	SURFACE_SPECIES
	RATES
	END
------------------------------------
Reading input data for simulation 1.
------------------------------------

	database ../database/Amm.dat
	SELECTED_OUTPUT 101
	    file                 (NH4)2SO4_101.sel
	USER_PUNCH 101
	    headings Mu SC
	    start
	10 PUNCH STR_F$(MU, 20, 12)
	20 PUNCH STR_F$(SC, 20, 10)
	    end
	END
------------------
End of simulation.
------------------

------------------------------------
Reading input data for simulation 2.
------------------------------------

	SOLUTION_SPREAD
	temp 20
	units mmol/L
	density 1 calculate
	Number	S(6)	Amm	pH
	1	38	76	7 charge
	2	76	152	7 charge
	3	153	306	7 charge
	4	231	462	7 charge
	5	309	618	7 charge
	6	389	778	7 charge
	7	469	938	7 charge
	8	551	1102	7 charge
	9	633	1266	7 charge
	10	716	1432	7 charge
	11	800	1600	7 charge
	12	971	1942	7 charge
	13	1145	2290	7 charge
	14	1323	2646	7 charge
	15	1504	3008	7 charge
	16	1688	3376	7 charge
	17	1876	3752	7 charge
	18	2067	4134	7 charge
	19	2262	4524	7 charge
	USER_GRAPH 1
	-initial_solutions true
	-axis_scale y_axis 0.9 1.7
	-axis_scale sy_axis 0 250
	-chart_title "Handbook of Chemistry data of (NH4)2SO4, 20 oC"
	-axis_titles "molality" "rho (kg/L) or viscos / viscos_0" "specific conductance / (mmho/cm)"
	-headings rho visc/visc_0 SC
	10  DATA 1.0012,  1.0042,  1.0101,  1.0160,  1.0220,  1.0279,  1.0338,  1.0397,  1.0456,  1.0515,  1.0574,  1.0691,  1.0808,  1.0924,  1.1039,  1.1154,  1.1269,  1.1383,  1.1496 # rho
	20  dim dens(50) : restore 10 : for i = 1 to cell_no : read dens(i) : next i
	30  DATA  1.006,  1.012,  1.025,  1.039,  1.055,  1.071,  1.088,  1.106,  1.125,  1.145,  1.166,  1.208,  1.253,  1.302,  1.356,  1.418,  1.487,  1.563,  1.647 # visc/visc_0
	40  dim v_v0(50) : restore 30 : for i = 1 to cell_no : read v_v0(i) : next i 
	50  DATA  7.4,  14.2,  25.7,  36.7,  47.2,  57.4,  67.4,  77,  86.3,  95.5,  105,  122,  139,  156,  171,  185,  198,  210,  220 #  sc*1e3
	60  dim cond(50) : restore 50 : for i = 1 to cell_no : read cond(i) : next i
	62  put((1 - rho / dens(cell_no))^2 + get(1), 1) : put((1 - viscos / viscos_0 / v_v0(cell_no ))^2 + get(2), 2) : put((1 - sc / 1e3 / cond(cell_no ))^2 + get(3), 3)
	64  x = tot("S")
	70  plot_xy x, dens(cell_no ), line_width = 0, color = Red
	72 plot_xy x, v_v0(cell_no ), line_width = 0,     color = Green
	74 plot_xy x, cond(cell_no ), line_width = 0, color = Blue, y_axis = 2
	80  plot_xy x, rho, symbol = None,             color = Red
	90  plot_xy x, viscos / viscos_0 , symbol = None,  color = Green
	100 plot_xy x, sc / 1e3, symbol = None,        color = Blue, y_axis = 2
	130 if cell_no < 19 then end 
	140 print 's.d. in density ',      str_f$((get(1) / 18)^0.5 * 100, 0, 2) + ' %'
	150 print 's.d. in viscosity ',    str_f$((get(2) / 18)^0.5 * 100, 0, 2) + ' %' 
	160 print 's.d. in conductivity ', str_f$((get(3) / 18)^0.5 * 100, 0, 2) + ' %'
	USER_GRAPH 2
	 -active false
	-initial_solutions true
	-chart_title "Handbook of Chemistry data of (NH4)2SO4, 20 oC"
	-axis_titles "molality" "molality or ionic strength"
	-headings AmmHSO4- AmmH+ Amm SO4-2 mu
	64  x = tot("S")
	70  plot_xy x, mol("AmmHSO4-")
	80  plot_xy x, mol("AmmH+")
	90  plot_xy x, mol("Amm")
	100 plot_xy x, mol("SO4-2")
	110 plot_xy x, mu
-------------------------------------------
Beginning of initial solution calculations.
-------------------------------------------

Initial solution 1.	

-----------------------------Solution composition------------------------------

	Elements           Molality       Moles

	Amm               7.628e-02   7.628e-02
	S(6)              3.814e-02   3.814e-02

----------------------------Description of solution----------------------------

                                       pH  =   5.546      Charge balance
                                       pe  =   4.000    
      Specific Conductance (µS/cm,  20°C)  = 8011
                          Density (g/cm³)  =   1.00134 (Iterated) 
                               Volume (L)  =   1.00369
                        Viscosity (mPa s)  =   1.00430
                        Activity of water  =   0.998
                 Ionic strength (mol/kgw)  =   9.243e-02
                       Mass of water (kg)  =   1.000e+00
                 Total alkalinity (eq/kg)  =   1.100e-12
                         Temperature (°C)  =  20.00
                  Electrical balance (eq)  =   1.471e-12
 Percent error, 100*(Cat-|An|)/(Cat+|An|)  =   0.00
                               Iterations  =   5 (20 overall)
                                  Total H  = 1.110887e+02
                                  Total O  = 5.565878e+01

----------------------------Distribution of species----------------------------

                                               Log       Log       Log    mole V
   Species          Molality    Activity  Molality  Activity     Gamma    cm³/mol

   H+              3.430e-06   2.846e-06    -5.465    -5.546    -0.081      0.00
   OH-             3.122e-09   2.402e-09    -8.506    -8.620    -0.114     -3.98
   H2O             5.551e+01   9.982e-01     1.744    -0.001     0.000     18.05
Amm           7.628e-02
   AmmH+           6.528e-02   4.917e-02    -1.185    -1.308    -0.123     17.99
   AmmHSO4-        1.099e-02   8.315e-03    -1.959    -2.080    -0.121     34.57
   Amm             6.729e-06   6.874e-06    -5.172    -5.163     0.009     24.19
H(0)          1.181e-22
   H2              5.903e-23   6.030e-23   -22.229   -22.220     0.009     28.61
O(0)          0.000e+00
   O2              0.000e+00   0.000e+00   -49.593   -49.583     0.009     29.98
S(6)          3.814e-02
   SO4-2           2.714e-02   1.046e-02    -1.566    -1.981    -0.414     12.38
   AmmHSO4-        1.099e-02   8.315e-03    -1.959    -2.080    -0.121     34.57
   HSO4-           3.303e-06   2.600e-06    -5.481    -5.585    -0.104     40.15

------------------------------Saturation indices-------------------------------

  Phase               SI** log IAP   log K(293 K,   1 atm)

  Amm(g)           -7.07     -5.16    1.90  Amm
  H2(g)           -19.13    -22.22   -3.09  H2
  H2O(g)           -1.63     -0.00    1.63  H2O
  O2(g)           -46.73    -49.58   -2.85  O2

**For a gas, SI = log10(fugacity). Fugacity = pressure * phi / 1 atm.
  For ideal gases, phi = 1.

Initial solution 2.	

-----------------------------Solution composition------------------------------

	Elements           Molality       Moles

	Amm               1.529e-01   1.529e-01
	S(6)              7.643e-02   7.643e-02

----------------------------Description of solution----------------------------

                                       pH  =   5.475      Charge balance
                                       pe  =   4.000    
      Specific Conductance (µS/cm,  20°C)  = 14664
                          Density (g/cm³)  =   1.00439 (Iterated) 
                               Volume (L)  =   1.00568
                        Viscosity (mPa s)  =   1.00751
                        Activity of water  =   0.997
                 Ionic strength (mol/kgw)  =   1.701e-01
                       Mass of water (kg)  =   1.000e+00
                 Total alkalinity (eq/kg)  =   1.530e-13
                         Temperature (°C)  =  20.00
                  Electrical balance (eq)  =  -9.187e-12
 Percent error, 100*(Cat-|An|)/(Cat+|An|)  =  -0.00
                               Iterations  =   5 (40 overall)
                                  Total H  = 1.111653e+02
                                  Total O  = 5.581194e+01

----------------------------Distribution of species----------------------------

                                               Log       Log       Log    mole V
   Species          Molality    Activity  Molality  Activity     Gamma    cm³/mol

   H+              4.159e-06   3.349e-06    -5.381    -5.475    -0.094      0.00
   OH-             2.823e-09   2.037e-09    -8.549    -8.691    -0.142     -3.80
   H2O             5.551e+01   9.966e-01     1.744    -0.001     0.000     18.05
Amm           1.529e-01
   AmmH+           1.233e-01   8.610e-02    -0.909    -1.065    -0.156     18.06
   AmmHSO4-        2.957e-02   2.041e-02    -1.529    -1.690    -0.161     35.81
   Amm             9.834e-06   1.023e-05    -5.007    -4.990     0.017     24.19
H(0)          1.606e-22
   H2              8.031e-23   8.352e-23   -22.095   -22.078     0.017     28.61
O(0)          0.000e+00
   O2              0.000e+00   0.000e+00   -49.885   -49.868     0.017     29.98
S(6)          7.643e-02
   SO4-2           4.686e-02   1.466e-02    -1.329    -1.834    -0.505     12.77
   AmmHSO4-        2.957e-02   2.041e-02    -1.529    -1.690    -0.161     35.81
   HSO4-           5.678e-06   4.288e-06    -5.246    -5.368    -0.122     40.24

------------------------------Saturation indices-------------------------------

  Phase               SI** log IAP   log K(293 K,   1 atm)

  Amm(g)           -6.89     -4.99    1.90  Amm
  H2(g)           -18.99    -22.08   -3.09  H2
  H2O(g)           -1.64     -0.00    1.63  H2O
  O2(g)           -47.01    -49.87   -2.85  O2

**For a gas, SI = log10(fugacity). Fugacity = pressure * phi / 1 atm.
  For ideal gases, phi = 1.

Initial solution 3.	

-----------------------------Solution composition------------------------------

	Elements           Molality       Moles

	Amm               3.090e-01   3.090e-01
	S(6)              1.545e-01   1.545e-01

----------------------------Description of solution----------------------------

                                       pH  =   5.407      Charge balance
                                       pe  =   4.000    
      Specific Conductance (µS/cm,  20°C)  = 26501
                          Density (g/cm³)  =   1.01040 (Iterated) 
                               Volume (L)  =   1.00991
                        Viscosity (mPa s)  =   1.01645
                        Activity of water  =   0.993
                 Ionic strength (mol/kgw)  =   3.094e-01
                       Mass of water (kg)  =   1.000e+00
                 Total alkalinity (eq/kg)  =   4.505e-17
                         Temperature (°C)  =  20.00
                  Electrical balance (eq)  =  -7.330e-14
 Percent error, 100*(Cat-|An|)/(Cat+|An|)  =  -0.00
                               Iterations  =   6 (70 overall)
                                  Total H  = 1.113215e+02
                                  Total O  = 5.612428e+01

----------------------------Distribution of species----------------------------

                                               Log       Log       Log    mole V
   Species          Molality    Activity  Molality  Activity     Gamma    cm³/mol

   H+              5.009e-06   3.919e-06    -5.300    -5.407    -0.107      0.00
   OH-             2.577e-09   1.735e-09    -8.589    -8.761    -0.172     -3.52
   H2O             5.551e+01   9.934e-01     1.744    -0.003     0.000     18.05
Amm           3.090e-01
   AmmH+           2.320e-01   1.487e-01    -0.635    -0.828    -0.193     18.14
   AmmHSO4-        7.705e-02   4.665e-02    -1.113    -1.331    -0.218     37.31
   Amm             1.405e-05   1.509e-05    -4.852    -4.821     0.031     24.19
H(0)          2.131e-22
   H2              1.065e-22   1.144e-22   -21.973   -21.942     0.031     28.61
O(0)          0.000e+00
   O2              0.000e+00   0.000e+00   -50.175   -50.144     0.031     29.98
S(6)          1.545e-01
   SO4-2           7.746e-02   1.941e-02    -1.111    -1.712    -0.601     13.29
   AmmHSO4-        7.705e-02   4.665e-02    -1.113    -1.331    -0.218     37.31
   HSO4-           9.044e-06   6.646e-06    -5.044    -5.177    -0.134     40.36

------------------------------Saturation indices-------------------------------

  Phase               SI** log IAP   log K(293 K,   1 atm)

  Amm(g)           -6.72     -4.82    1.90  Amm
  H2(g)           -18.85    -21.94   -3.09  H2
  H2O(g)           -1.64     -0.00    1.63  H2O
  O2(g)           -47.29    -50.14   -2.85  O2

**For a gas, SI = log10(fugacity). Fugacity = pressure * phi / 1 atm.
  For ideal gases, phi = 1.

Initial solution 4.	

-----------------------------Solution composition------------------------------

	Elements           Molality       Moles

	Amm               4.687e-01   4.687e-01
	S(6)              2.343e-01   2.343e-01

----------------------------Description of solution----------------------------

                                       pH  =   5.365      Charge balance
                                       pe  =   4.000    
      Specific Conductance (µS/cm,  20°C)  = 37373
                          Density (g/cm³)  =   1.01633 (Iterated) 
                               Volume (L)  =   1.01439
                        Viscosity (mPa s)  =   1.02771
                        Activity of water  =   0.990
                 Ionic strength (mol/kgw)  =   4.361e-01
                       Mass of water (kg)  =   1.000e+00
                 Total alkalinity (eq/kg)  =   3.504e-16
                         Temperature (°C)  =  20.00
                  Electrical balance (eq)  =  -8.126e-12
 Percent error, 100*(Cat-|An|)/(Cat+|An|)  =  -0.00
                               Iterations  =   7 (105 overall)
                                  Total H  = 1.114811e+02
                                  Total O  = 5.644352e+01

----------------------------Distribution of species----------------------------

                                               Log       Log       Log    mole V
   Species          Molality    Activity  Molality  Activity     Gamma    cm³/mol

   H+              5.600e-06   4.314e-06    -5.252    -5.365    -0.113      0.00
   OH-             2.434e-09   1.571e-09    -8.614    -8.804    -0.190     -3.29
   H2O             5.551e+01   9.903e-01     1.744    -0.004     0.000     18.05
Amm           4.687e-01
   AmmH+           3.352e-01   2.035e-01    -0.475    -0.691    -0.217     18.20
   AmmHSO4-        1.334e-01   7.280e-02    -0.875    -1.138    -0.263     38.34
   Amm             1.697e-05   1.877e-05    -4.770    -4.727     0.044     24.19
H(0)          2.507e-22
   H2              1.253e-22   1.386e-22   -21.902   -21.858     0.044     28.61
O(0)          0.000e+00
   O2              0.000e+00   0.000e+00   -50.357   -50.313     0.044     29.98
S(6)          2.343e-01
   AmmHSO4-        1.334e-01   7.280e-02    -0.875    -1.138    -0.263     38.34
   SO4-2           1.009e-01   2.212e-02    -0.996    -1.655    -0.659     13.66
   HSO4-           1.138e-05   8.337e-06    -4.944    -5.079    -0.135     40.44

------------------------------Saturation indices-------------------------------

  Phase               SI** log IAP   log K(293 K,   1 atm)

  Amm(g)           -6.63     -4.73    1.90  Amm
  H2(g)           -18.77    -21.86   -3.09  H2
  H2O(g)           -1.64     -0.00    1.63  H2O
  O2(g)           -47.46    -50.31   -2.85  O2

**For a gas, SI = log10(fugacity). Fugacity = pressure * phi / 1 atm.
  For ideal gases, phi = 1.

Initial solution 5.	

-----------------------------Solution composition------------------------------

	Elements           Molality       Moles

	Amm               6.298e-01   6.298e-01
	S(6)              3.149e-01   3.149e-01

----------------------------Description of solution----------------------------

                                       pH  =   5.334      Charge balance
                                       pe  =   4.000    
      Specific Conductance (µS/cm,  20°C)  = 47616
                          Density (g/cm³)  =   1.02215 (Iterated) 
                               Volume (L)  =   1.01904
                        Viscosity (mPa s)  =   1.04057
                        Activity of water  =   0.987
                 Ionic strength (mol/kgw)  =   5.535e-01
                       Mass of water (kg)  =   1.000e+00
                 Total alkalinity (eq/kg)  =   2.888e-14
                         Temperature (°C)  =  20.00
                  Electrical balance (eq)  =  -8.740e-10
 Percent error, 100*(Cat-|An|)/(Cat+|An|)  =  -0.00
                               Iterations  =   7 (140 overall)
                                  Total H  = 1.116422e+02
                                  Total O  = 5.676575e+01

----------------------------Distribution of species----------------------------

                                               Log       Log       Log    mole V
   Species          Molality    Activity  Molality  Activity     Gamma    cm³/mol

   H+              6.083e-06   4.638e-06    -5.216    -5.334    -0.118      0.00
   OH-             2.326e-09   1.457e-09    -8.633    -8.837    -0.203     -3.08
   H2O             5.551e+01   9.873e-01     1.744    -0.006     0.000     18.05
Amm           6.298e-01
   AmmH+           4.342e-01   2.535e-01    -0.362    -0.596    -0.234     18.24
   AmmHSO4-        1.955e-01   9.750e-02    -0.709    -1.011    -0.302     39.13
   Amm             1.914e-05   2.174e-05    -4.718    -4.663     0.055     24.19
H(0)          2.821e-22
   H2              1.410e-22   1.602e-22   -21.851   -21.795     0.055     28.61
O(0)          0.000e+00
   O2              0.000e+00   0.000e+00   -50.497   -50.442     0.055     29.98
S(6)          3.149e-01
   AmmHSO4-        1.955e-01   9.750e-02    -0.709    -1.011    -0.302     39.13
   SO4-2           1.193e-01   2.379e-02    -0.923    -1.624    -0.700     13.96
   HSO4-           1.306e-05   9.640e-06    -4.884    -5.016    -0.132     40.51

------------------------------Saturation indices-------------------------------

  Phase               SI** log IAP   log K(293 K,   1 atm)

  Amm(g)           -6.57     -4.66    1.90  Amm
  H2(g)           -18.71    -21.80   -3.09  H2
  H2O(g)           -1.64     -0.01    1.63  H2O
  O2(g)           -47.59    -50.44   -2.85  O2

**For a gas, SI = log10(fugacity). Fugacity = pressure * phi / 1 atm.
  For ideal gases, phi = 1.

Initial solution 6.	

-----------------------------Solution composition------------------------------

	Elements           Molality       Moles

	Amm               7.966e-01   7.966e-01
	S(6)              3.983e-01   3.983e-01

----------------------------Description of solution----------------------------

                                       pH  =   5.307      Charge balance
                                       pe  =   4.000    
      Specific Conductance (µS/cm,  20°C)  = 57586
                          Density (g/cm³)  =   1.02801 (Iterated) 
                               Volume (L)  =   1.02396
                        Viscosity (mPa s)  =   1.05509
                        Activity of water  =   0.984
                 Ionic strength (mol/kgw)  =   6.671e-01
                       Mass of water (kg)  =   1.000e+00
                 Total alkalinity (eq/kg)  =   1.412e-14
                         Temperature (°C)  =  20.00
                  Electrical balance (eq)  =  -8.999e-10
 Percent error, 100*(Cat-|An|)/(Cat+|An|)  =  -0.00
                               Iterations  =   7 (182 overall)
                                  Total H  = 1.118091e+02
                                  Total O  = 5.709949e+01

----------------------------Distribution of species----------------------------

                                               Log       Log       Log    mole V
   Species          Molality    Activity  Molality  Activity     Gamma    cm³/mol

   H+              6.522e-06   4.934e-06    -5.186    -5.307    -0.121      0.00
   OH-             2.231e-09   1.365e-09    -8.651    -8.865    -0.213     -2.90
   H2O             5.551e+01   9.842e-01     1.744    -0.007     0.000     18.05
Amm           7.966e-01
   AmmH+           5.327e-01   3.013e-01    -0.274    -0.521    -0.247     18.28
   AmmHSO4-        2.639e-01   1.210e-01    -0.579    -0.917    -0.339     39.80
   Amm             2.083e-05   2.429e-05    -4.681    -4.615     0.067     24.19
H(0)          3.110e-22
   H2              1.555e-22   1.813e-22   -21.808   -21.742     0.067     28.61
O(0)          0.000e+00
   O2              0.000e+00   0.000e+00   -50.618   -50.552     0.067     29.98
S(6)          3.983e-01
   AmmHSO4-        2.639e-01   1.210e-01    -0.579    -0.917    -0.339     39.80
   SO4-2           1.344e-01   2.483e-02    -0.872    -1.605    -0.733     14.22
   HSO4-           1.431e-05   1.071e-05    -4.844    -4.970    -0.126     40.57

------------------------------Saturation indices-------------------------------

  Phase               SI** log IAP   log K(293 K,   1 atm)

  Amm(g)           -6.52     -4.61    1.90  Amm
  H2(g)           -18.65    -21.74   -3.09  H2
  H2O(g)           -1.64     -0.01    1.63  H2O
  O2(g)           -47.70    -50.55   -2.85  O2

**For a gas, SI = log10(fugacity). Fugacity = pressure * phi / 1 atm.
  For ideal gases, phi = 1.

Initial solution 7.	

-----------------------------Solution composition------------------------------

	Elements           Molality       Moles

	Amm               9.652e-01   9.652e-01
	S(6)              4.826e-01   4.826e-01

----------------------------Description of solution----------------------------

                                       pH  =   5.283      Charge balance
                                       pe  =   4.000    
      Specific Conductance (µS/cm,  20°C)  = 67059
                          Density (g/cm³)  =   1.03378 (Iterated) 
                               Volume (L)  =   1.02901
                        Viscosity (mPa s)  =   1.07075
                        Activity of water  =   0.981
                 Ionic strength (mol/kgw)  =   7.755e-01
                       Mass of water (kg)  =   1.000e+00
                 Total alkalinity (eq/kg)  =   2.744e-15
                         Temperature (°C)  =  20.00
                  Electrical balance (eq)  =  -2.392e-10
 Percent error, 100*(Cat-|An|)/(Cat+|An|)  =  -0.00
                               Iterations  =   7 (224 overall)
                                  Total H  = 1.119776e+02
                                  Total O  = 5.743664e+01

----------------------------Distribution of species----------------------------

                                               Log       Log       Log    mole V
   Species          Molality    Activity  Molality  Activity     Gamma    cm³/mol

   H+              6.926e-06   5.208e-06    -5.159    -5.283    -0.124      0.00
   OH-             2.148e-09   1.290e-09    -8.668    -8.890    -0.222     -2.72
   H2O             5.551e+01   9.811e-01     1.744    -0.008     0.000     18.05
Amm           9.652e-01
   AmmH+           6.290e-01   3.467e-01    -0.201    -0.460    -0.259     18.32
   AmmHSO4-        3.361e-01   1.426e-01    -0.473    -0.846    -0.372     40.38
   Amm             2.215e-05   2.648e-05    -4.655    -4.577     0.078     24.19
H(0)          3.379e-22
   H2              1.690e-22   2.020e-22   -21.772   -21.695     0.078     28.61
O(0)          0.000e+00
   O2              0.000e+00   0.000e+00   -50.726   -50.648     0.078     29.98
S(6)          4.826e-01
   AmmHSO4-        3.361e-01   1.426e-01    -0.473    -0.846    -0.372     40.38
   SO4-2           1.464e-01   2.543e-02    -0.834    -1.595    -0.760     14.45
   HSO4-           1.523e-05   1.157e-05    -4.817    -4.937    -0.119     40.62

------------------------------Saturation indices-------------------------------

  Phase               SI** log IAP   log K(293 K,   1 atm)

  Amm(g)           -6.48     -4.58    1.90  Amm
  H2(g)           -18.61    -21.69   -3.09  H2
  H2O(g)           -1.64     -0.01    1.63  H2O
  O2(g)           -47.79    -50.65   -2.85  O2

**For a gas, SI = log10(fugacity). Fugacity = pressure * phi / 1 atm.
  For ideal gases, phi = 1.

Initial solution 8.	

-----------------------------Solution composition------------------------------

	Elements           Molality       Moles

	Amm               1.140e+00   1.140e+00
	S(6)              5.699e-01   5.699e-01

----------------------------Description of solution----------------------------

                                       pH  =   5.262      Charge balance
                                       pe  =   4.000    
      Specific Conductance (µS/cm,  20°C)  = 76312
                          Density (g/cm³)  =   1.03962 (Iterated) 
                               Volume (L)  =   1.03433
                        Viscosity (mPa s)  =   1.08786
                        Activity of water  =   0.978
                 Ionic strength (mol/kgw)  =   8.825e-01
                       Mass of water (kg)  =   1.000e+00
                 Total alkalinity (eq/kg)  =   4.596e-16
                         Temperature (°C)  =  20.00
                  Electrical balance (eq)  =  -2.985e-11
 Percent error, 100*(Cat-|An|)/(Cat+|An|)  =  -0.00
                               Iterations  =   7 (266 overall)
                                  Total H  = 1.121523e+02
                                  Total O  = 5.778589e+01

----------------------------Distribution of species----------------------------

                                               Log       Log       Log    mole V
   Species          Molality    Activity  Molality  Activity     Gamma    cm³/mol

   H+              7.319e-06   5.476e-06    -5.136    -5.262    -0.126      0.00
   OH-             2.070e-09   1.223e-09    -8.684    -8.913    -0.229     -2.55
   H2O             5.551e+01   9.780e-01     1.744    -0.010     0.000     18.05
Amm           1.140e+00
   AmmH+           7.262e-01   3.913e-01    -0.139    -0.407    -0.268     18.35
   AmmHSO4-        4.136e-01   1.627e-01    -0.383    -0.789    -0.405     40.90
   Amm             2.320e-05   2.843e-05    -4.634    -4.546     0.088     24.19
H(0)          3.645e-22
   H2              1.822e-22   2.233e-22   -21.739   -21.651     0.088     28.61
O(0)          0.000e+00
   O2              0.000e+00   0.000e+00   -50.826   -50.738     0.088     29.98
S(6)          5.699e-01
   AmmHSO4-        4.136e-01   1.627e-01    -0.383    -0.789    -0.405     40.90
   SO4-2           1.563e-01   2.571e-02    -0.806    -1.590    -0.784     14.66
   HSO4-           1.589e-05   1.230e-05    -4.799    -4.910    -0.111     40.66

------------------------------Saturation indices-------------------------------

  Phase               SI** log IAP   log K(293 K,   1 atm)

  Amm(g)           -6.45     -4.55    1.90  Amm
  H2(g)           -18.56    -21.65   -3.09  H2
  H2O(g)           -1.64     -0.01    1.63  H2O
  O2(g)           -47.88    -50.74   -2.85  O2

**For a gas, SI = log10(fugacity). Fugacity = pressure * phi / 1 atm.
  For ideal gases, phi = 1.

Initial solution 9.	

-----------------------------Solution composition------------------------------

	Elements           Molality       Moles

	Amm               1.316e+00   1.316e+00
	S(6)              6.582e-01   6.582e-01

----------------------------Description of solution----------------------------

                                       pH  =   5.242      Charge balance
                                       pe  =   4.000    
      Specific Conductance (µS/cm,  20°C)  = 85163
                          Density (g/cm³)  =   1.04538 (Iterated) 
                               Volume (L)  =   1.03979
                        Viscosity (mPa s)  =   1.10596
                        Activity of water  =   0.975
                 Ionic strength (mol/kgw)  =   9.862e-01
                       Mass of water (kg)  =   1.000e+00
                 Total alkalinity (eq/kg)  =   9.534e-17
                         Temperature (°C)  =  20.00
                  Electrical balance (eq)  =  -3.449e-12
 Percent error, 100*(Cat-|An|)/(Cat+|An|)  =  -0.00
                               Iterations  =   7 (308 overall)
                                  Total H  = 1.123288e+02
                                  Total O  = 5.813896e+01

----------------------------Distribution of species----------------------------

                                               Log       Log       Log    mole V
   Species          Molality    Activity  Molality  Activity     Gamma    cm³/mol

   H+              7.697e-06   5.734e-06    -5.114    -5.242    -0.128      0.00
   OH-             1.998e-09   1.164e-09    -8.699    -8.934    -0.235     -2.39
   H2O             5.551e+01   9.748e-01     1.744    -0.011     0.000     18.05
Amm           1.316e+00
   AmmH+           8.222e-01   4.345e-01    -0.085    -0.362    -0.277     18.38
   AmmHSO4-        4.942e-01   1.809e-01    -0.306    -0.743    -0.436     41.36
   Amm             2.402e-05   3.015e-05    -4.619    -4.521     0.099     24.19
H(0)          3.903e-22
   H2              1.951e-22   2.449e-22   -21.710   -21.611     0.099     28.61
O(0)          0.000e+00
   O2              0.000e+00   0.000e+00   -50.920   -50.821     0.099     29.98
S(6)          6.582e-01
   AmmHSO4-        4.942e-01   1.809e-01    -0.306    -0.743    -0.436     41.36
   SO4-2           1.640e-01   2.575e-02    -0.785    -1.589    -0.804     14.85
   HSO4-           1.633e-05   1.290e-05    -4.787    -4.889    -0.102     40.71

------------------------------Saturation indices-------------------------------

  Phase               SI** log IAP   log K(293 K,   1 atm)

  Amm(g)           -6.42     -4.52    1.90  Amm
  H2(g)           -18.52    -21.61   -3.09  H2
  H2O(g)           -1.64     -0.01    1.63  H2O
  O2(g)           -47.97    -50.82   -2.85  O2

**For a gas, SI = log10(fugacity). Fugacity = pressure * phi / 1 atm.
  For ideal gases, phi = 1.

Initial solution 10.	

-----------------------------Solution composition------------------------------

	Elements           Molality       Moles

	Amm               1.497e+00   1.497e+00
	S(6)              7.485e-01   7.485e-01

----------------------------Description of solution----------------------------

                                       pH  =   5.223      Charge balance
                                       pe  =   4.000    
      Specific Conductance (µS/cm,  20°C)  = 93765
                          Density (g/cm³)  =   1.05115 (Iterated) 
                               Volume (L)  =   1.04544
                        Viscosity (mPa s)  =   1.12521
                        Activity of water  =   0.972
                 Ionic strength (mol/kgw)  =   1.089e+00
                       Mass of water (kg)  =   1.000e+00
                 Total alkalinity (eq/kg)  =   1.007e-16
                         Temperature (°C)  =  20.00
                  Electrical balance (eq)  =  -1.072e-12
 Percent error, 100*(Cat-|An|)/(Cat+|An|)  =  -0.00
                               Iterations  =   7 (357 overall)
                                  Total H  = 1.125095e+02
                                  Total O  = 5.850036e+01

----------------------------Distribution of species----------------------------

                                               Log       Log       Log    mole V
   Species          Molality    Activity  Molality  Activity     Gamma    cm³/mol

   H+              8.070e-06   5.990e-06    -5.093    -5.223    -0.129      0.00
   OH-             1.931e-09   1.110e-09    -8.714    -8.955    -0.240     -2.23
   H2O             5.551e+01   9.717e-01     1.744    -0.012     0.000     18.05
Amm           1.497e+00
   AmmH+           9.186e-01   4.771e-01    -0.037    -0.321    -0.285     18.41
   AmmHSO4-        5.785e-01   1.974e-01    -0.238    -0.705    -0.467     41.79
   Amm             2.466e-05   3.169e-05    -4.608    -4.499     0.109     24.19
H(0)          4.159e-22
   H2              2.080e-22   2.672e-22   -21.682   -21.573     0.109     28.61
O(0)          0.000e+00
   O2              0.000e+00   0.000e+00   -51.009   -50.900     0.109     29.98
S(6)          7.485e-01
   AmmHSO4-        5.785e-01   1.974e-01    -0.238    -0.705    -0.467     41.79
   SO4-2           1.701e-01   2.559e-02    -0.769    -1.592    -0.823     15.03
   HSO4-           1.659e-05   1.339e-05    -4.780    -4.873    -0.093     40.74

------------------------------Saturation indices-------------------------------

  Phase               SI** log IAP   log K(293 K,   1 atm)

  Amm(g)           -6.40     -4.50    1.90  Amm
  H2(g)           -18.49    -21.57   -3.09  H2
  H2O(g)           -1.65     -0.01    1.63  H2O
  O2(g)           -48.05    -50.90   -2.85  O2

**For a gas, SI = log10(fugacity). Fugacity = pressure * phi / 1 atm.
  For ideal gases, phi = 1.

Initial solution 11.	

-----------------------------Solution composition------------------------------

	Elements           Molality       Moles

	Amm               1.682e+00   1.682e+00
	S(6)              8.410e-01   8.410e-01

----------------------------Description of solution----------------------------

                                       pH  =   5.204      Charge balance
                                       pe  =   4.000    
      Specific Conductance (µS/cm,  20°C)  = 102152
                          Density (g/cm³)  =   1.05692 (Iterated) 
                               Volume (L)  =   1.05130
                        Viscosity (mPa s)  =   1.14562
                        Activity of water  =   0.968
                 Ionic strength (mol/kgw)  =   1.190e+00
                       Mass of water (kg)  =   1.000e+00
                 Total alkalinity (eq/kg)  =   7.685e-17
                         Temperature (°C)  =  20.00
                  Electrical balance (eq)  =  -2.542e-14
 Percent error, 100*(Cat-|An|)/(Cat+|An|)  =  -0.00
                               Iterations  =   8 (412 overall)
                                  Total H  = 1.126945e+02
                                  Total O  = 5.887037e+01

----------------------------Distribution of species----------------------------

                                               Log       Log       Log    mole V
   Species          Molality    Activity  Molality  Activity     Gamma    cm³/mol

   H+              8.440e-06   6.245e-06    -5.074    -5.204    -0.131      0.00
   OH-             1.867e-09   1.062e-09    -8.729    -8.974    -0.245     -2.08
   H2O             5.551e+01   9.684e-01     1.744    -0.014     0.000     18.05
Amm           1.682e+00
   AmmH+           1.016e+00   5.193e-01     0.007    -0.285    -0.291     18.43
   AmmHSO4-        6.664e-01   2.123e-01    -0.176    -0.673    -0.497     42.20
   Amm             2.515e-05   3.308e-05    -4.599    -4.480     0.119     24.19
H(0)          4.416e-22
   H2              2.208e-22   2.904e-22   -21.656   -21.537     0.119     28.61
O(0)          0.000e+00
   O2              0.000e+00   0.000e+00   -51.094   -50.975     0.119     29.98
S(6)          8.410e-01
   AmmHSO4-        6.664e-01   2.123e-01    -0.176    -0.673    -0.497     42.20
   SO4-2           1.746e-01   2.528e-02    -0.758    -1.597    -0.839     15.20
   HSO4-           1.671e-05   1.379e-05    -4.777    -4.860    -0.083     40.78

------------------------------Saturation indices-------------------------------

  Phase               SI** log IAP   log K(293 K,   1 atm)

  Amm(g)           -6.38     -4.48    1.90  Amm
  H2(g)           -18.45    -21.54   -3.09  H2
  H2O(g)           -1.65     -0.01    1.63  H2O
  O2(g)           -48.12    -50.98   -2.85  O2

**For a gas, SI = log10(fugacity). Fugacity = pressure * phi / 1 atm.
  For ideal gases, phi = 1.

Initial solution 12.	

-----------------------------Solution composition------------------------------

	Elements           Molality       Moles

	Amm               2.066e+00   2.066e+00
	S(6)              1.033e+00   1.033e+00

----------------------------Description of solution----------------------------

                                       pH  =   5.170      Charge balance
                                       pe  =   4.000    
      Specific Conductance (µS/cm,  20°C)  = 118382
                          Density (g/cm³)  =   1.06849 (Iterated) 
                               Volume (L)  =   1.06363
                        Viscosity (mPa s)  =   1.18998
                        Activity of water  =   0.962
                 Ionic strength (mol/kgw)  =   1.393e+00
                       Mass of water (kg)  =   1.000e+00
                 Total alkalinity (eq/kg)  =   8.758e-17
                         Temperature (°C)  =  20.00
                  Electrical balance (eq)  =  -1.241e-12
 Percent error, 100*(Cat-|An|)/(Cat+|An|)  =  -0.00
                               Iterations  =  11 (489 overall)
                                  Total H  = 1.130780e+02
                                  Total O  = 5.963736e+01

----------------------------Distribution of species----------------------------

                                               Log       Log       Log    mole V
   Species          Molality    Activity  Molality  Activity     Gamma    cm³/mol

   H+              9.184e-06   6.758e-06    -5.037    -5.170    -0.133      0.00
   OH-             1.747e-09   9.743e-10    -8.758    -9.011    -0.254     -1.78
   H2O             5.551e+01   9.618e-01     1.744    -0.017     0.000     18.05
Amm           2.066e+00
   AmmH+           1.213e+00   6.030e-01     0.084    -0.220    -0.303     18.48
   AmmHSO4-        8.527e-01   2.371e-01    -0.069    -0.625    -0.556     42.94
   Amm             2.576e-05   3.550e-05    -4.589    -4.450     0.139     24.19
H(0)          4.935e-22
   H2              2.468e-22   3.401e-22   -21.608   -21.468     0.139     28.61
O(0)          0.000e+00
   O2              0.000e+00   0.000e+00   -51.257   -51.118     0.139     29.98
S(6)          1.033e+00
   AmmHSO4-        8.527e-01   2.371e-01    -0.069    -0.625    -0.556     42.94
   SO4-2           1.801e-01   2.432e-02    -0.745    -1.614    -0.870     15.52
   HSO4-           1.658e-05   1.436e-05    -4.781    -4.843    -0.062     40.85

------------------------------Saturation indices-------------------------------

  Phase               SI** log IAP   log K(293 K,   1 atm)

  Amm(g)           -6.35     -4.45    1.90  Amm
  H2(g)           -18.38    -21.47   -3.09  H2
  H2O(g)           -1.65     -0.02    1.63  H2O
  O2(g)           -48.26    -51.12   -2.85  O2

**For a gas, SI = log10(fugacity). Fugacity = pressure * phi / 1 atm.
  For ideal gases, phi = 1.

Initial solution 13.	

-----------------------------Solution composition------------------------------

	Elements           Molality       Moles

	Amm               2.466e+00   2.466e+00
	S(6)              1.233e+00   1.233e+00

----------------------------Description of solution----------------------------

                                       pH  =   5.138      Charge balance
                                       pe  =   4.000    
      Specific Conductance (µS/cm,  20°C)  = 133929
                          Density (g/cm³)  =   1.08003 (Iterated) 
                               Volume (L)  =   1.07674
                        Viscosity (mPa s)  =   1.23901
                        Activity of water  =   0.955
                 Ionic strength (mol/kgw)  =   1.596e+00
                       Mass of water (kg)  =   1.000e+00
                 Total alkalinity (eq/kg)  =  -7.029e-16
                         Temperature (°C)  =  20.00
                  Electrical balance (eq)  =  -1.221e-13
 Percent error, 100*(Cat-|An|)/(Cat+|An|)  =  -0.00
                               Iterations  =  11 (576 overall)
                                  Total H  = 1.134782e+02
                                  Total O  = 6.043771e+01

----------------------------Distribution of species----------------------------

                                               Log       Log       Log    mole V
   Species          Molality    Activity  Molality  Activity     Gamma    cm³/mol

   H+              9.933e-06   7.276e-06    -5.003    -5.138    -0.135      0.00
   OH-             1.638e-09   8.985e-10    -8.786    -9.046    -0.261     -1.48
   H2O             5.551e+01   9.550e-01     1.744    -0.020     0.000     18.05
Amm           2.466e+00
   AmmH+           1.414e+00   6.864e-01     0.151    -0.163    -0.314     18.53
   AmmHSO4-        1.051e+00   2.556e-01     0.022    -0.592    -0.614     43.62
   Amm             2.599e-05   3.753e-05    -4.585    -4.426     0.160     24.19
H(0)          5.460e-22
   H2              2.730e-22   3.942e-22   -21.564   -21.404     0.160     28.61
O(0)          0.000e+00
   O2              0.000e+00   0.000e+00   -51.412   -51.253     0.160     29.98
S(6)          1.233e+00
   AmmHSO4-        1.051e+00   2.556e-01     0.022    -0.592    -0.614     43.62
   SO4-2           1.814e-01   2.303e-02    -0.741    -1.638    -0.896     15.81
   HSO4-           1.606e-05   1.464e-05    -4.794    -4.834    -0.040     40.91

------------------------------Saturation indices-------------------------------

  Phase               SI** log IAP   log K(293 K,   1 atm)

  Amm(g)           -6.33     -4.43    1.90  Amm
  H2(g)           -18.32    -21.40   -3.09  H2
  H2O(g)           -1.65     -0.02    1.63  H2O
  O2(g)           -48.40    -51.25   -2.85  O2

**For a gas, SI = log10(fugacity). Fugacity = pressure * phi / 1 atm.
  For ideal gases, phi = 1.

Initial solution 14.	

-----------------------------Solution composition------------------------------

	Elements           Molality       Moles

	Amm               2.886e+00   2.886e+00
	S(6)              1.443e+00   1.443e+00

----------------------------Description of solution----------------------------

                                       pH  =   5.108      Charge balance
                                       pe  =   4.000    
      Specific Conductance (µS/cm,  20°C)  = 149008
                          Density (g/cm³)  =   1.09162 (Iterated) 
                               Volume (L)  =   1.09076
                        Viscosity (mPa s)  =   1.29338
                        Activity of water  =   0.948
                 Ionic strength (mol/kgw)  =   1.802e+00
                       Mass of water (kg)  =   1.000e+00
                 Total alkalinity (eq/kg)  =   2.084e-15
                         Temperature (°C)  =  20.00
                  Electrical balance (eq)  =  -1.249e-09
 Percent error, 100*(Cat-|An|)/(Cat+|An|)  =  -0.00
                               Iterations  =  10 (656 overall)
                                  Total H  = 1.138986e+02
                                  Total O  = 6.127851e+01

----------------------------Distribution of species----------------------------

                                               Log       Log       Log    mole V
   Species          Molality    Activity  Molality  Activity     Gamma    cm³/mol

   H+              1.070e-05   7.805e-06    -4.971    -5.108    -0.137      0.00
   OH-             1.539e-09   8.314e-10    -8.813    -9.080    -0.267     -1.18
   H2O             5.551e+01   9.479e-01     1.744    -0.023     0.000     18.05
Amm           2.886e+00
   AmmH+           1.622e+00   7.706e-01     0.210    -0.113    -0.323     18.58
   AmmHSO4-        1.264e+00   2.683e-01     0.102    -0.571    -0.673     44.26
   Amm             2.594e-05   3.928e-05    -4.586    -4.406     0.180     24.19
H(0)          5.991e-22
   H2              2.996e-22   4.536e-22   -21.523   -21.343     0.180     28.61
O(0)          0.000e+00
   O2              0.000e+00   0.000e+00   -51.561   -51.381     0.180     29.98
S(6)          1.443e+00
   AmmHSO4-        1.264e+00   2.683e-01     0.102    -0.571    -0.673     44.26
   SO4-2           1.794e-01   2.153e-02    -0.746    -1.667    -0.921     16.10
   HSO4-           1.525e-05   1.468e-05    -4.817    -4.833    -0.016     40.96

------------------------------Saturation indices-------------------------------

  Phase               SI** log IAP   log K(293 K,   1 atm)

  Amm(g)           -6.31     -4.41    1.90  Amm
  H2(g)           -18.26    -21.34   -3.09  H2
  H2O(g)           -1.66     -0.02    1.63  H2O
  O2(g)           -48.53    -51.38   -2.85  O2

**For a gas, SI = log10(fugacity). Fugacity = pressure * phi / 1 atm.
  For ideal gases, phi = 1.

Initial solution 15.	

-----------------------------Solution composition------------------------------

	Elements           Molality       Moles

	Amm               3.326e+00   3.326e+00
	S(6)              1.663e+00   1.663e+00

----------------------------Description of solution----------------------------

                                       pH  =   5.079      Charge balance
                                       pe  =   4.000    
      Specific Conductance (µS/cm,  20°C)  = 163625
                          Density (g/cm³)  =   1.10319 (Iterated) 
                               Volume (L)  =   1.10565
                        Viscosity (mPa s)  =   1.35331
                        Activity of water  =   0.940
                 Ionic strength (mol/kgw)  =   2.012e+00
                       Mass of water (kg)  =   1.000e+00
                 Total alkalinity (eq/kg)  =   9.179e-15
                         Temperature (°C)  =  20.00
                  Electrical balance (eq)  =  -5.852e-09
 Percent error, 100*(Cat-|An|)/(Cat+|An|)  =  -0.00
                               Iterations  =  10 (736 overall)
                                  Total H  = 1.143382e+02
                                  Total O  = 6.215779e+01

----------------------------Distribution of species----------------------------

                                               Log       Log       Log    mole V
   Species          Molality    Activity  Molality  Activity     Gamma    cm³/mol

   H+              1.147e-05   8.341e-06    -4.940    -5.079    -0.138      0.00
   OH-             1.448e-09   7.718e-10    -8.839    -9.112    -0.273     -0.89
   H2O             5.551e+01   9.405e-01     1.744    -0.027     0.000     18.05
Amm           3.326e+00
   AmmH+           1.838e+00   8.559e-01     0.264    -0.068    -0.332     18.63
   AmmHSO4-        1.488e+00   2.754e-01     0.173    -0.560    -0.733     44.86
   Amm             2.568e-05   4.082e-05    -4.590    -4.389     0.201     24.19
H(0)          6.520e-22
   H2              3.260e-22   5.182e-22   -21.487   -21.286     0.201     28.61
O(0)          0.000e+00
   O2              0.000e+00   0.000e+00   -51.705   -51.503     0.201     29.98
S(6)          1.663e+00
   AmmHSO4-        1.488e+00   2.754e-01     0.173    -0.560    -0.733     44.86
   SO4-2           1.748e-01   1.989e-02    -0.757    -1.701    -0.944     16.37
   HSO4-           1.421e-05   1.450e-05    -4.847    -4.839     0.009     41.02

------------------------------Saturation indices-------------------------------

  Phase               SI** log IAP   log K(293 K,   1 atm)

  Amm(g)           -6.29     -4.39    1.90  Amm
  H2(g)           -18.20    -21.29   -3.09  H2
  H2O(g)           -1.66     -0.03    1.63  H2O
  O2(g)           -48.65    -51.50   -2.85  O2

**For a gas, SI = log10(fugacity). Fugacity = pressure * phi / 1 atm.
  For ideal gases, phi = 1.

Initial solution 16.	

-----------------------------Solution composition------------------------------

	Elements           Molality       Moles

	Amm               3.786e+00   3.786e+00
	S(6)              1.893e+00   1.893e+00

----------------------------Description of solution----------------------------

                                       pH  =   5.051      Charge balance
                                       pe  =   4.000    
      Specific Conductance (µS/cm,  20°C)  = 177859
                          Density (g/cm³)  =   1.11475 (Iterated) 
                               Volume (L)  =   1.12147
                        Viscosity (mPa s)  =   1.41944
                        Activity of water  =   0.933
                 Ionic strength (mol/kgw)  =   2.229e+00
                       Mass of water (kg)  =   1.000e+00
                 Total alkalinity (eq/kg)  =   4.031e-16
                         Temperature (°C)  =  20.00
                  Electrical balance (eq)  =  -1.104e-10
 Percent error, 100*(Cat-|An|)/(Cat+|An|)  =  -0.00
                               Iterations  =  10 (825 overall)
                                  Total H  = 1.147985e+02
                                  Total O  = 6.307836e+01

----------------------------Distribution of species----------------------------

                                               Log       Log       Log    mole V
   Species          Molality    Activity  Molality  Activity     Gamma    cm³/mol

   H+              1.226e-05   8.884e-06    -4.912    -5.051    -0.140      0.00
   OH-             1.365e-09   7.188e-10    -8.865    -9.143    -0.278     -0.58
   H2O             5.551e+01   9.328e-01     1.744    -0.030     0.000     18.05
Amm           3.786e+00
   AmmH+           2.061e+00   9.428e-01     0.314    -0.026    -0.340     18.67
   AmmHSO4-        1.725e+00   2.774e-01     0.237    -0.557    -0.794     45.44
   Amm             2.527e-05   4.222e-05    -4.597    -4.374     0.223     24.19
H(0)          7.035e-22
   H2              3.518e-22   5.877e-22   -21.454   -21.231     0.223     28.61
O(0)          0.000e+00
   O2              0.000e+00   0.000e+00   -51.843   -51.620     0.223     29.98
S(6)          1.893e+00
   AmmHSO4-        1.725e+00   2.774e-01     0.237    -0.557    -0.794     45.44
   SO4-2           1.681e-01   1.819e-02    -0.775    -1.740    -0.966     16.63
   HSO4-           1.302e-05   1.412e-05    -4.886    -4.850     0.035     41.07

------------------------------Saturation indices-------------------------------

  Phase               SI** log IAP   log K(293 K,   1 atm)

  Amm(g)           -6.28     -4.37    1.90  Amm
  H2(g)           -18.14    -21.23   -3.09  H2
  H2O(g)           -1.66     -0.03    1.63  H2O
  O2(g)           -48.77    -51.62   -2.85  O2

**For a gas, SI = log10(fugacity). Fugacity = pressure * phi / 1 atm.
  For ideal gases, phi = 1.

Initial solution 17.	

-----------------------------Solution composition------------------------------

	Elements           Molality       Moles

	Amm               4.271e+00   4.271e+00
	S(6)              2.136e+00   2.136e+00

----------------------------Description of solution----------------------------

                                       pH  =   5.026      Charge balance
                                       pe  =   4.000    
      Specific Conductance (µS/cm,  20°C)  = 191842
                          Density (g/cm³)  =   1.12634 (Iterated) 
                               Volume (L)  =   1.13838
                        Viscosity (mPa s)  =   1.49296
                        Activity of water  =   0.925
                 Ionic strength (mol/kgw)  =   2.455e+00
                       Mass of water (kg)  =   1.000e+00
                 Total alkalinity (eq/kg)  =  -1.345e-16
                         Temperature (°C)  =  20.00
                  Electrical balance (eq)  =  -9.652e-11
 Percent error, 100*(Cat-|An|)/(Cat+|An|)  =  -0.00
                               Iterations  =   9 (906 overall)
                                  Total H  = 1.152836e+02
                                  Total O  = 6.404859e+01

----------------------------Distribution of species----------------------------

                                               Log       Log       Log    mole V
   Species          Molality    Activity  Molality  Activity     Gamma    cm³/mol

   H+              1.305e-05   9.429e-06    -4.885    -5.026    -0.141      0.00
   OH-             1.289e-09   6.713e-10    -8.890    -9.173    -0.283     -0.27
   H2O             5.551e+01   9.247e-01     1.744    -0.034     0.000     18.05
Amm           4.271e+00
   AmmH+           2.295e+00   1.032e+00     0.361     0.014    -0.347     18.72
   AmmHSO4-        1.976e+00   2.747e-01     0.296    -0.561    -0.857     46.01
   Amm             2.475e-05   4.355e-05    -4.606    -4.361     0.245     24.19
H(0)          7.525e-22
   H2              3.762e-22   6.621e-22   -21.425   -21.179     0.245     28.61
O(0)          0.000e+00
   O2              0.000e+00   0.000e+00   -51.976   -51.731     0.245     29.98
S(6)          2.136e+00
   AmmHSO4-        1.976e+00   2.747e-01     0.296    -0.561    -0.857     46.01
   SO4-2           1.596e-01   1.645e-02    -0.797    -1.784    -0.987     16.89
   HSO4-           1.170e-05   1.356e-05    -4.932    -4.868     0.064     41.12

------------------------------Saturation indices-------------------------------

  Phase               SI** log IAP   log K(293 K,   1 atm)

  Amm(g)           -6.26     -4.36    1.90  Amm
  H2(g)           -18.09    -21.18   -3.09  H2
  H2O(g)           -1.67     -0.03    1.63  H2O
  O2(g)           -48.88    -51.73   -2.85  O2

**For a gas, SI = log10(fugacity). Fugacity = pressure * phi / 1 atm.
  For ideal gases, phi = 1.

Initial solution 18.	

-----------------------------Solution composition------------------------------

	Elements           Molality       Moles

	Amm               4.780e+00   4.780e+00
	S(6)              2.390e+00   2.390e+00

----------------------------Description of solution----------------------------

                                       pH  =   5.001      Charge balance
                                       pe  =   4.000    
      Specific Conductance (µS/cm,  20°C)  = 205543
                          Density (g/cm³)  =   1.13791 (Iterated) 
                               Volume (L)  =   1.15637
                        Viscosity (mPa s)  =   1.57446
                        Activity of water  =   0.916
                 Ionic strength (mol/kgw)  =   2.690e+00
                       Mass of water (kg)  =   1.000e+00
                 Total alkalinity (eq/kg)  =  -2.430e-16
                         Temperature (°C)  =  20.00
                  Electrical balance (eq)  =  -3.593e-12
 Percent error, 100*(Cat-|An|)/(Cat+|An|)  =  -0.00
                               Iterations  =   9 (988 overall)
                                  Total H  = 1.157929e+02
                                  Total O  = 6.506709e+01

----------------------------Distribution of species----------------------------

                                               Log       Log       Log    mole V
   Species          Molality    Activity  Molality  Activity     Gamma    cm³/mol

   H+              1.383e-05   9.968e-06    -4.859    -5.001    -0.142      0.00
   OH-             1.221e-09   6.292e-10    -8.913    -9.201    -0.288      0.05
   H2O             5.551e+01   9.162e-01     1.744    -0.038     0.000     18.05
Amm           4.780e+00
   AmmH+           2.540e+00   1.124e+00     0.405     0.051    -0.354     18.77
   AmmHSO4-        2.240e+00   2.678e-01     0.350    -0.572    -0.923     46.57
   Amm             2.416e-05   4.487e-05    -4.617    -4.348     0.269     24.19
H(0)          7.966e-22
   H2              3.983e-22   7.399e-22   -21.400   -21.131     0.269     28.61
O(0)          0.000e+00
   O2              0.000e+00   0.000e+00   -52.105   -51.836     0.269     29.98
S(6)          2.390e+00
   AmmHSO4-        2.240e+00   2.678e-01     0.350    -0.572    -0.923     46.57
   SO4-2           1.498e-01   1.473e-02    -0.824    -1.832    -1.007     17.15
   HSO4-           1.033e-05   1.283e-05    -4.986    -4.892     0.094     41.17

------------------------------Saturation indices-------------------------------

  Phase               SI** log IAP   log K(293 K,   1 atm)

  Amm(g)           -6.25     -4.35    1.90  Amm
  H2(g)           -18.04    -21.13   -3.09  H2
  H2O(g)           -1.67     -0.04    1.63  H2O
  O2(g)           -48.98    -51.84   -2.85  O2

**For a gas, SI = log10(fugacity). Fugacity = pressure * phi / 1 atm.
  For ideal gases, phi = 1.

Initial solution 19.	

-----------------------------Solution composition------------------------------

	Elements           Molality       Moles

	Amm               5.319e+00   5.319e+00
	S(6)              2.659e+00   2.659e+00

----------------------------Description of solution----------------------------

                                       pH  =   4.979      Charge balance
                                       pe  =   4.000    
      Specific Conductance (µS/cm,  20°C)  = 219066
                          Density (g/cm³)  =   1.14951 (Iterated) 
                               Volume (L)  =   1.17564
                        Viscosity (mPa s)  =   1.66551
                        Activity of water  =   0.907
                 Ionic strength (mol/kgw)  =   2.937e+00
                       Mass of water (kg)  =   1.000e+00
                 Total alkalinity (eq/kg)  =  -4.674e-15
                         Temperature (°C)  =  20.00
                  Electrical balance (eq)  =   2.702e-09
 Percent error, 100*(Cat-|An|)/(Cat+|An|)  =   0.00
                               Iterations  =   8 (1071 overall)
                                  Total H  = 1.163310e+02
                                  Total O  = 6.614340e+01

----------------------------Distribution of species----------------------------

                                               Log       Log       Log    mole V
   Species          Molality    Activity  Molality  Activity     Gamma    cm³/mol

   H+              1.459e-05   1.049e-05    -4.836    -4.979    -0.143      0.00
   OH-             1.160e-09   5.919e-10    -8.935    -9.228    -0.292      0.39
   H2O             5.551e+01   9.072e-01     1.744    -0.042     0.000     18.05
Amm           5.319e+00
   AmmH+           2.798e+00   1.220e+00     0.447     0.086    -0.361     18.82
   AmmHSO4-        2.520e+00   2.571e-01     0.401    -0.590    -0.991     47.12
   Amm             2.352e-05   4.625e-05    -4.629    -4.335     0.294     24.19
H(0)          8.337e-22
   H2              4.169e-22   8.198e-22   -21.380   -21.086     0.294     28.61
O(0)          0.000e+00
   O2              0.000e+00   0.000e+00   -52.227   -51.933     0.294     29.98
S(6)          2.659e+00
   AmmHSO4-        2.520e+00   2.571e-01     0.401    -0.590    -0.991     47.12
   SO4-2           1.390e-01   1.303e-02    -0.857    -1.885    -1.028     17.42
   HSO4-           8.932e-06   1.195e-05    -5.049    -4.923     0.126     41.22

------------------------------Saturation indices-------------------------------

  Phase               SI** log IAP   log K(293 K,   1 atm)

  Amm(g)           -6.24     -4.33    1.90  Amm
  H2(g)           -18.00    -21.09   -3.09  H2
  H2O(g)           -1.68     -0.04    1.63  H2O
  O2(g)           -49.08    -51.93   -2.85  O2

**For a gas, SI = log10(fugacity). Fugacity = pressure * phi / 1 atm.
  For ideal gases, phi = 1.

------------------
End of simulation.
------------------

------------------------------------
Reading input data for simulation 3.
------------------------------------

