WARNING: Database file from DATABASE keyword is used; command line argument ignored.
   Input file: no_negative_dump
  Output file: no_negative_dump.out
Database file: ../database/minteq.dat

------------------
Reading data base.
------------------

	SOLUTION_MASTER_SPECIES
	SOLUTION_SPECIES
	SOLUTION_SPECIES
	PHASES
	SURFACE_MASTER_SPECIES
	SURFACE_SPECIES
	END
------------------------------------
Reading input data for simulation 1.
------------------------------------

	DATABASE ../database/minteq.dat
	SELECTED_OUTPUT 101
	    file                 no_negative_dump_101.sel
	USER_PUNCH 101
	    headings Mu SC
	    start
	10 PUNCH STR_F$(MU, 20, 12)
	20 PUNCH STR_F$(SC, 20, 10)
	    end
	SOLUTION 0
	   Na   0.5
	   Cl   0.5
	END
-------------------------------------------
Beginning of initial solution calculations.
-------------------------------------------

Initial solution 0.	

-----------------------------Solution composition------------------------------

	Elements           Molality       Moles

	Cl                5.000e-04   5.000e-04
	Na                5.000e-04   5.000e-04

----------------------------Description of solution----------------------------

                                       pH  =   7.000    
                                       pe  =   4.000    
                        Activity of water  =   1.000
                 Ionic strength (mol/kgw)  =   5.001e-04
                       Mass of water (kg)  =   1.000e+00
                 Total alkalinity (eq/kg)  =   5.713e-10
                    Total carbon (mol/kg)  =   0.000e+00
                       Total CO2 (mol/kg)  =   0.000e+00
                         Temperature (°C)  =  25.00
                  Electrical balance (eq)  =  -5.713e-10
 Percent error, 100*(Cat-|An|)/(Cat+|An|)  =  -0.00
                               Iterations  =   3
                                  Total H  = 1.110124e+02
                                  Total O  = 5.550622e+01

----------------------------Distribution of species----------------------------

                                               Log       Log       Log    mole V
   Species          Molality    Activity  Molality  Activity     Gamma   cm³/mol

   OH-             1.031e-07   1.005e-07    -6.987    -6.998    -0.011     (0)  
   H+              1.025e-07   1.000e-07    -6.989    -7.000    -0.011      0.00
   H2O             5.551e+01   1.000e+00     1.744    -0.000     0.000     18.07
Cl            5.000e-04
   Cl-             5.000e-04   4.873e-04    -3.301    -3.312    -0.011     (0)  
H(0)          1.416e-25
   H2              7.079e-26   7.079e-26   -25.150   -25.150     0.000     (0)  
Na            5.000e-04
   Na+             5.000e-04   4.874e-04    -3.301    -3.312    -0.011     (0)  
O(0)          0.000e+00
   O2              0.000e+00   0.000e+00   -42.080   -42.080     0.000     (0)  

------------------------------Saturation indices-------------------------------

  Phase               SI** log IAP   log K(298 K,   1 atm)

  Halite           -8.21     -6.62    1.58  NaCl
  O2(g)           -39.12     44.00   83.12  O2

**For a gas, SI = log10(fugacity). Fugacity = pressure * phi / 1 atm.
  For ideal gases, phi = 1.

------------------
End of simulation.
------------------

------------------------------------
Reading input data for simulation 2.
------------------------------------

	PHASES
	Ferrihydrite
		Fe(OH)3 + 3H+ = Fe+3 + 3H2O
		log_k	3.191
		delta_h	-73.374	kJ
	EQUILIBRIUM_PHASES 1-50
		 Ferrihydrite  0  0.08e-3
	SOLUTION 1-50
		Na  10
		Cl  10
	END
-------------------------------------------
Beginning of initial solution calculations.
-------------------------------------------

Initial solution 1.	

-----------------------------Solution composition------------------------------

	Elements           Molality       Moles

	Cl                1.000e-02   1.000e-02
	Na                1.000e-02   1.000e-02

----------------------------Description of solution----------------------------

                                       pH  =   7.000    
                                       pe  =   4.000    
                        Activity of water  =   1.000
                 Ionic strength (mol/kgw)  =   1.000e-02
                       Mass of water (kg)  =   1.000e+00
                 Total alkalinity (eq/kg)  =   2.095e-09
                    Total carbon (mol/kg)  =   0.000e+00
                       Total CO2 (mol/kg)  =   0.000e+00
                         Temperature (°C)  =  25.00
                  Electrical balance (eq)  =  -2.099e-09
 Percent error, 100*(Cat-|An|)/(Cat+|An|)  =  -0.00
                               Iterations  =   3
                                  Total H  = 1.110124e+02
                                  Total O  = 5.550622e+01

----------------------------Distribution of species----------------------------

                                               Log       Log       Log    mole V
   Species          Molality    Activity  Molality  Activity     Gamma   cm³/mol

   OH-             1.116e-07   1.004e-07    -6.952    -6.998    -0.046     (0)  
   H+              1.095e-07   1.000e-07    -6.961    -7.000    -0.039      0.00
   H2O             5.551e+01   9.997e-01     1.744    -0.000     0.000     18.07
Cl            1.000e-02
   Cl-             1.000e-02   8.989e-03    -2.000    -2.046    -0.046     (0)  
H(0)          1.413e-25
   H2              7.063e-26   7.079e-26   -25.151   -25.150     0.001     (0)  
Na            1.000e-02
   Na+             1.000e-02   9.030e-03    -2.000    -2.044    -0.044     (0)  
O(0)          0.000e+00
   O2              0.000e+00   0.000e+00   -42.081   -42.080     0.001     (0)  

------------------------------Saturation indices-------------------------------

  Phase               SI** log IAP   log K(298 K,   1 atm)

  Halite           -5.67     -4.09    1.58  NaCl
  O2(g)           -39.12     44.00   83.12  O2

**For a gas, SI = log10(fugacity). Fugacity = pressure * phi / 1 atm.
  For ideal gases, phi = 1.

-----------------------------------------
Beginning of batch-reaction calculations.
-----------------------------------------

Reaction step 1.

Using solution 1.	
Using pure phase assemblage 1.	

-------------------------------Phase assemblage--------------------------------

                                                      Moles in assemblage
Phase               SI  log IAP  log K(T, P)   Initial       Final       Delta

Ferrihydrite      0.00     3.19      3.19    8.000e-05   8.000e-05  -4.096e-10

-----------------------------Solution composition------------------------------

	Elements           Molality       Moles

	Cl                1.000e-02   1.000e-02
	Fe                4.096e-10   4.096e-10
	Na                1.000e-02   1.000e-02

----------------------------Description of solution----------------------------

                                       pH  =   7.001      Charge balance
                                       pe  =   9.475      Adjusted to redox equilibrium
                        Activity of water  =   1.000
                 Ionic strength (mol/kgw)  =   1.000e-02
                       Mass of water (kg)  =   1.000e+00
                 Total alkalinity (eq/kg)  =   2.504e-09
                    Total carbon (mol/kg)  =   0.000e+00
                       Total CO2 (mol/kg)  =   0.000e+00
                         Temperature (°C)  =  25.00
                  Electrical balance (eq)  =  -2.099e-09
 Percent error, 100*(Cat-|An|)/(Cat+|An|)  =  -0.00
                               Iterations  =  13
                                  Total H  = 1.110124e+02
                                  Total O  = 5.550622e+01

----------------------------Distribution of species----------------------------

                                               Log       Log       Log    mole V
   Species          Molality    Activity  Molality  Activity     Gamma   cm³/mol

   OH-             1.118e-07   1.006e-07    -6.952    -6.997    -0.046     (0)  
   H+              1.093e-07   9.984e-08    -6.961    -7.001    -0.039      0.00
   H2O             5.551e+01   9.997e-01     1.744    -0.000     0.000     18.07
Cl            1.000e-02
   Cl-             1.000e-02   8.989e-03    -2.000    -2.046    -0.046     (0)  
   FeCl+2          6.284e-19   4.198e-19   -18.202   -18.377    -0.175     (0)  
   FeCl2+          1.864e-20   1.686e-20   -19.729   -19.773    -0.044     (0)  
   FeCl3           1.512e-23   1.515e-23   -22.821   -22.820     0.001     (0)  
Fe(2)         8.271e-15
   Fe+2            8.252e-15   5.573e-15   -14.083   -14.254    -0.170     (0)  
   FeOH+           1.952e-17   1.765e-17   -16.710   -16.753    -0.044     (0)  
   Fe(OH)2         1.501e-21   1.504e-21   -20.824   -20.823     0.001     (0)  
   Fe(OH)3-        6.189e-25   5.595e-25   -24.208   -24.252    -0.044     (0)  
Fe(3)         4.096e-10
   Fe(OH)2+        3.662e-10   3.315e-10    -9.436    -9.480    -0.043     (0)  
   Fe(OH)3         3.890e-11   3.899e-11   -10.410   -10.409     0.001     (0)  
   Fe(OH)4-        4.314e-12   3.904e-12   -11.365   -11.408    -0.043     (0)  
   FeOH+2          1.497e-13   9.997e-14   -12.825   -13.000    -0.175     (0)  
   Fe+3            3.496e-18   1.546e-18   -17.456   -17.811    -0.354     (0)  
   FeCl+2          6.284e-19   4.198e-19   -18.202   -18.377    -0.175     (0)  
   FeCl2+          1.864e-20   1.686e-20   -19.729   -19.773    -0.044     (0)  
   FeCl3           1.512e-23   1.515e-23   -22.821   -22.820     0.001     (0)  
   Fe2(OH)2+4      1.403e-24   2.690e-25   -23.853   -24.570    -0.717     (0)  
   Fe3(OH)4+5      2.461e-31   1.863e-32   -30.609   -31.730    -1.121     (0)  
H(0)          1.578e-36
   H2              7.892e-37   7.910e-37   -36.103   -36.102     0.001     (0)  
Na            1.000e-02
   Na+             1.000e-02   9.030e-03    -2.000    -2.044    -0.044     (0)  
O(0)          1.328e-20
   O2              6.642e-21   6.658e-21   -20.178   -20.177     0.001     (0)  

------------------------------Saturation indices-------------------------------

  Phase               SI** log IAP   log K(298 K,   1 atm)

  Fe(OH)2.7Cl0.3    3.52      0.48   -3.04  Fe(OH)2.7Cl0.3
  Fe3(OH)8        -14.09      6.13   20.22  Fe3(OH)8
  Ferrihydrite      0.00      3.19    3.19  Fe(OH)3
  Goethite          2.69      3.19    0.50  FeOOH
  Halite           -5.67     -4.09    1.58  NaCl
  Hematite         10.39      6.38   -4.01  Fe2O3
  Lepidocrocite     1.82      3.19    1.37  FeOOH
  Maghemite        -0.00      6.38    6.39  Fe2O3
  Magnetite         2.39      6.13    3.74  Fe3O4
  O2(g)           -17.22     65.90   83.12  O2

**For a gas, SI = log10(fugacity). Fugacity = pressure * phi / 1 atm.
  For ideal gases, phi = 1.

------------------
End of simulation.
------------------

------------------------------------
Reading input data for simulation 3.
------------------------------------

	SURFACE 1-50
		Hfo_wOH Ferrihydrite equilibrium_phase 0.2 	5.33e4	
		Hfo_sOH Ferrihydrite equilibrium_phase 0.005
		equilibrate 1
	END
------------------------------------------------------
Beginning of initial surface-composition calculations.
------------------------------------------------------

Surface 1.	

Diffuse Double Layer Surface-Complexation Model

Hfo           
	  7.622e-07  Surface charge, eq
	  1.725e-02  sigma, C/m²
	  6.053e-02  psi, V
	 -2.356e+00  -F*psi/RT
	  9.477e-02  exp(-F*psi/RT)
	  5.330e+04  specific area, m²/mol Ferrihydrite
	  4.264e+00  m² for   8.000e-05 moles of Ferrihydrite


Hfo_s         
	  4.000e-07  moles	[0.005 mol/(mol Ferrihydrite)]
	                                   Mole                     Log
	Species               Moles    Fraction    Molality    Molality

	Hfo_sOH           3.056e-07       0.764   3.056e-07      -6.515
	Hfo_sOH2+         5.648e-08       0.141   5.648e-08      -7.248
	Hfo_sO-           3.789e-08       0.095   3.789e-08      -7.421

Hfo_w         
	  1.600e-05  moles	[0.2 mol/(mol Ferrihydrite)]
	                                   Mole                     Log
	Species               Moles    Fraction    Molality    Molality

	Hfo_wOH           1.223e-05       0.764   1.223e-05      -4.913
	Hfo_wOH2+         2.259e-06       0.141   2.259e-06      -5.646
	Hfo_wO-           1.516e-06       0.095   1.516e-06      -5.819

------------------
End of simulation.
------------------

------------------------------------
Reading input data for simulation 4.
------------------------------------

	TRANSPORT
		cells 50
		shifts 10
		time_step 8640
		lengths 1
		dispersivities 0.1
		diffusion_coefficient 10e-9
		boundary_conditions   flux flux
	 	flow_direction	forward
	END
WARNING: Cell-lengths were read for 1 cells. Last value is used till cell 50.
WARNING: Dispersivities were read for 1 cells. Last value is used till cell 50.
------------------------------------
Beginning of transport calculations.
------------------------------------

-------------------------------
Equilibrating initial solutions
-------------------------------

Using solution 1.	
Using surface 1.	
Using pure phase assemblage 1.	

-------------------------------Phase assemblage--------------------------------

                                                      Moles in assemblage
Phase               SI  log IAP  log K(T, P)   Initial       Final       Delta

Ferrihydrite     -0.00     3.19      3.19    8.000e-05   8.000e-05  -4.100e-10

------------------------------Surface composition------------------------------

Diffuse Double Layer Surface-Complexation Model

Hfo           
	  7.620e-07  Surface charge, eq
	  1.724e-02  sigma, C/m²
	  6.052e-02  psi, V
	 -2.356e+00  -F*psi/RT
	  9.482e-02  exp(-F*psi/RT)
	  5.330e+04  specific area, m²/mol Ferrihydrite
	  4.264e+00  m² for   8.000e-05 moles of Ferrihydrite


Hfo_s         
	  4.000e-07  moles	[0.005 mol/(mol Ferrihydrite)]
	                                   Mole                     Log
	Species               Moles    Fraction    Molality    Molality

	Hfo_sOH           3.056e-07       0.764   3.056e-07      -6.515
	Hfo_sOH2+         5.648e-08       0.141   5.648e-08      -7.248
	Hfo_sO-           3.789e-08       0.095   3.789e-08      -7.421

Hfo_w         
	  1.600e-05  moles	[0.2 mol/(mol Ferrihydrite)]
	                                   Mole                     Log
	Species               Moles    Fraction    Molality    Molality

	Hfo_wOH           1.223e-05       0.764   1.223e-05      -4.913
	Hfo_wOH2+         2.259e-06       0.141   2.259e-06      -5.646
	Hfo_wO-           1.516e-06       0.095   1.516e-06      -5.819

-----------------------------Solution composition------------------------------

	Elements           Molality       Moles

	Cl                1.000e-02   1.000e-02
	Fe                4.100e-10   4.100e-10
	Na                1.000e-02   1.000e-02

----------------------------Description of solution----------------------------

                                       pH  =   7.000      Charge balance
                                       pe  =  11.718      Adjusted to redox equilibrium
                        Activity of water  =   1.000
                 Ionic strength (mol/kgw)  =   1.000e-02
                       Mass of water (kg)  =   1.000e+00
                 Total alkalinity (eq/kg)  =   2.268e-09
                    Total carbon (mol/kg)  =   0.000e+00
                       Total CO2 (mol/kg)  =   0.000e+00
                         Temperature (°C)  =  25.00
                  Electrical balance (eq)  =  -1.862e-09
 Percent error, 100*(Cat-|An|)/(Cat+|An|)  =  -0.00
                               Iterations  =  10
                                  Total H  = 1.110124e+02
                                  Total O  = 5.550622e+01

----------------------------Distribution of species----------------------------

                                               Log       Log       Log    mole V
   Species          Molality    Activity  Molality  Activity     Gamma   cm³/mol

   OH-             1.116e-07   1.005e-07    -6.952    -6.998    -0.046     (0)  
   H+              1.094e-07   9.994e-08    -6.961    -7.000    -0.039      0.00
   H2O             5.551e+01   9.997e-01     1.744    -0.000     0.000     18.07
Cl            1.000e-02
   Cl-             1.000e-02   8.989e-03    -2.000    -2.046    -0.046     (0)  
   FeCl+2          6.305e-19   4.211e-19   -18.200   -18.376    -0.175     (0)  
   FeCl2+          1.870e-20   1.691e-20   -19.728   -19.772    -0.044     (0)  
   FeCl3           1.517e-23   1.520e-23   -22.819   -22.818     0.001     (0)  
Fe(2)         4.747e-17
   Fe+2            4.736e-17   3.199e-17   -16.325   -16.495    -0.170     (0)  
   FeOH+           1.119e-19   1.012e-19   -18.951   -18.995    -0.044     (0)  
   Fe(OH)2         8.594e-24   8.614e-24   -23.066   -23.065     0.001     (0)  
   Fe(OH)3-        3.541e-27   3.201e-27   -26.451   -26.495    -0.044     (0)  
Fe(3)         4.100e-10
   Fe(OH)2+        3.666e-10   3.318e-10    -9.436    -9.479    -0.043     (0)  
   Fe(OH)3         3.890e-11   3.899e-11   -10.410   -10.409     0.001     (0)  
   Fe(OH)4-        4.309e-12   3.900e-12   -11.366   -11.409    -0.043     (0)  
   FeOH+2          1.500e-13   1.002e-13   -12.824   -12.999    -0.175     (0)  
   Fe+3            3.507e-18   1.551e-18   -17.455   -17.809    -0.354     (0)  
   FeCl+2          6.305e-19   4.211e-19   -18.200   -18.376    -0.175     (0)  
   FeCl2+          1.870e-20   1.691e-20   -19.728   -19.772    -0.044     (0)  
   FeCl3           1.517e-23   1.520e-23   -22.819   -22.818     0.001     (0)  
   Fe2(OH)2+4      1.409e-24   2.702e-25   -23.851   -24.568    -0.717     (0)  
   Fe3(OH)4+5      2.474e-31   1.873e-32   -30.607   -31.727    -1.121     (0)  
H(0)          0.000e+00
   H2              0.000e+00   0.000e+00   -40.587   -40.586     0.001     (0)  
Na            1.000e-02
   Na+             1.000e-02   9.030e-03    -2.000    -2.044    -0.044     (0)  
O(0)          1.235e-11
   O2              6.174e-12   6.188e-12   -11.209   -11.208     0.001     (0)  

------------------------------Saturation indices-------------------------------

  Phase               SI** log IAP   log K(298 K,   1 atm)

  Fe(OH)2.7Cl0.3    3.52      0.48   -3.04  Fe(OH)2.7Cl0.3
  Fe3(OH)8        -16.33      3.89   20.22  Fe3(OH)8
  Ferrihydrite     -0.00      3.19    3.19  Fe(OH)3
  Goethite          2.69      3.19    0.50  FeOOH
  Halite           -5.67     -4.09    1.58  NaCl
  Hematite         10.39      6.38   -4.01  Fe2O3
  Lepidocrocite     1.82      3.19    1.37  FeOOH
  Maghemite        -0.00      6.38    6.39  Fe2O3
  Magnetite         0.15      3.89    3.74  Fe3O4
  O2(g)            -8.25     74.87   83.12  O2

**For a gas, SI = log10(fugacity). Fugacity = pressure * phi / 1 atm.
  For ideal gases, phi = 1.

Using solution 2.	
Using surface 2.	
Using pure phase assemblage 2.	

-------------------------------Phase assemblage--------------------------------

                                                      Moles in assemblage
Phase               SI  log IAP  log K(T, P)   Initial       Final       Delta

Ferrihydrite      0.00     3.19      3.19    8.000e-05   8.000e-05  -4.100e-10

------------------------------Surface composition------------------------------

Diffuse Double Layer Surface-Complexation Model

Hfo           
	  7.620e-07  Surface charge, eq
	  1.724e-02  sigma, C/m²
	  6.052e-02  psi, V
	 -2.356e+00  -F*psi/RT
	  9.482e-02  exp(-F*psi/RT)
	  5.330e+04  specific area, m²/mol Ferrihydrite
	  4.264e+00  m² for   8.000e-05 moles of Ferrihydrite


Hfo_s         
	  4.000e-07  moles	[0.005 mol/(mol Ferrihydrite)]
	                                   Mole                     Log
	Species               Moles    Fraction    Molality    Molality

	Hfo_sOH           3.056e-07       0.764   3.056e-07      -6.515
	Hfo_sOH2+         5.648e-08       0.141   5.648e-08      -7.248
	Hfo_sO-           3.789e-08       0.095   3.789e-08      -7.421

Hfo_w         
	  1.600e-05  moles	[0.2 mol/(mol Ferrihydrite)]
	                                   Mole                     Log
	Species               Moles    Fraction    Molality    Molality

	Hfo_wOH           1.223e-05       0.764   1.223e-05      -4.913
	Hfo_wOH2+         2.259e-06       0.141   2.259e-06      -5.646
	Hfo_wO-           1.516e-06       0.095   1.516e-06      -5.819

-----------------------------Solution composition------------------------------

	Elements           Molality       Moles

	Cl                1.000e-02   1.000e-02
	Fe                4.100e-10   4.100e-10
	Na                1.000e-02   1.000e-02

----------------------------Description of solution----------------------------

                                       pH  =   7.000      Charge balance
                                       pe  =  11.711      Adjusted to redox equilibrium
                        Activity of water  =   1.000
                 Ionic strength (mol/kgw)  =   1.000e-02
                       Mass of water (kg)  =   1.000e+00
                 Total alkalinity (eq/kg)  =   2.268e-09
                    Total carbon (mol/kg)  =   0.000e+00
                       Total CO2 (mol/kg)  =   0.000e+00
                         Temperature (°C)  =  25.00
                  Electrical balance (eq)  =  -1.862e-09
 Percent error, 100*(Cat-|An|)/(Cat+|An|)  =  -0.00
                               Iterations  =  10
                                  Total H  = 1.110124e+02
                                  Total O  = 5.550622e+01

----------------------------Distribution of species----------------------------

                                               Log       Log       Log    mole V
   Species          Molality    Activity  Molality  Activity     Gamma   cm³/mol

   OH-             1.116e-07   1.005e-07    -6.952    -6.998    -0.046     (0)  
   H+              1.094e-07   9.994e-08    -6.961    -7.000    -0.039      0.00
   H2O             5.551e+01   9.997e-01     1.744    -0.000     0.000     18.07
Cl            1.000e-02
   Cl-             1.000e-02   8.989e-03    -2.000    -2.046    -0.046     (0)  
   FeCl+2          6.305e-19   4.211e-19   -18.200   -18.376    -0.175     (0)  
   FeCl2+          1.870e-20   1.691e-20   -19.728   -19.772    -0.044     (0)  
   FeCl3           1.517e-23   1.520e-23   -22.819   -22.818     0.001     (0)  
Fe(2)         4.824e-17
   Fe+2            4.813e-17   3.251e-17   -16.318   -16.488    -0.170     (0)  
   FeOH+           1.137e-19   1.028e-19   -18.944   -18.988    -0.044     (0)  
   Fe(OH)2         8.734e-24   8.754e-24   -23.059   -23.058     0.001     (0)  
   Fe(OH)3-        3.598e-27   3.253e-27   -26.444   -26.488    -0.044     (0)  
Fe(3)         4.100e-10
   Fe(OH)2+        3.666e-10   3.318e-10    -9.436    -9.479    -0.043     (0)  
   Fe(OH)3         3.890e-11   3.899e-11   -10.410   -10.409     0.001     (0)  
   Fe(OH)4-        4.309e-12   3.900e-12   -11.366   -11.409    -0.043     (0)  
   FeOH+2          1.500e-13   1.002e-13   -12.824   -12.999    -0.175     (0)  
   Fe+3            3.507e-18   1.551e-18   -17.455   -17.809    -0.354     (0)  
   FeCl+2          6.305e-19   4.211e-19   -18.200   -18.376    -0.175     (0)  
   FeCl2+          1.870e-20   1.691e-20   -19.728   -19.772    -0.044     (0)  
   FeCl3           1.517e-23   1.520e-23   -22.819   -22.818     0.001     (0)  
   Fe2(OH)2+4      1.409e-24   2.702e-25   -23.851   -24.568    -0.717     (0)  
   Fe3(OH)4+5      2.474e-31   1.873e-32   -30.607   -31.727    -1.121     (0)  
H(0)          0.000e+00
   H2              0.000e+00   0.000e+00   -40.573   -40.572     0.001     (0)  
Na            1.000e-02
   Na+             1.000e-02   9.030e-03    -2.000    -2.044    -0.044     (0)  
O(0)          1.157e-11
   O2              5.787e-12   5.801e-12   -11.238   -11.237     0.001     (0)  

------------------------------Saturation indices-------------------------------

  Phase               SI** log IAP   log K(298 K,   1 atm)

  Fe(OH)2.7Cl0.3    3.52      0.48   -3.04  Fe(OH)2.7Cl0.3
  Fe3(OH)8        -16.33      3.89   20.22  Fe3(OH)8
  Ferrihydrite      0.00      3.19    3.19  Fe(OH)3
  Goethite          2.69      3.19    0.50  FeOOH
  Halite           -5.67     -4.09    1.58  NaCl
  Hematite         10.39      6.38   -4.01  Fe2O3
  Lepidocrocite     1.82      3.19    1.37  FeOOH
  Maghemite        -0.00      6.38    6.39  Fe2O3
  Magnetite         0.16      3.89    3.74  Fe3O4
  O2(g)            -8.28     74.84   83.12  O2

**For a gas, SI = log10(fugacity). Fugacity = pressure * phi / 1 atm.
  For ideal gases, phi = 1.

Using solution 3.	
Using surface 3.	
Using pure phase assemblage 3.	

-------------------------------Phase assemblage--------------------------------

                                                      Moles in assemblage
Phase               SI  log IAP  log K(T, P)   Initial       Final       Delta

Ferrihydrite      0.00     3.19      3.19    8.000e-05   8.000e-05  -4.100e-10

------------------------------Surface composition------------------------------

Diffuse Double Layer Surface-Complexation Model

Hfo           
	  7.620e-07  Surface charge, eq
	  1.724e-02  sigma, C/m²
	  6.052e-02  psi, V
	 -2.356e+00  -F*psi/RT
	  9.482e-02  exp(-F*psi/RT)
	  5.330e+04  specific area, m²/mol Ferrihydrite
	  4.264e+00  m² for   8.000e-05 moles of Ferrihydrite


Hfo_s         
	  4.000e-07  moles	[0.005 mol/(mol Ferrihydrite)]
	                                   Mole                     Log
	Species               Moles    Fraction    Molality    Molality

	Hfo_sOH           3.056e-07       0.764   3.056e-07      -6.515
	Hfo_sOH2+         5.648e-08       0.141   5.648e-08      -7.248
	Hfo_sO-           3.789e-08       0.095   3.789e-08      -7.421

Hfo_w         
	  1.600e-05  moles	[0.2 mol/(mol Ferrihydrite)]
	                                   Mole                     Log
	Species               Moles    Fraction    Molality    Molality

	Hfo_wOH           1.223e-05       0.764   1.223e-05      -4.913
	Hfo_wOH2+         2.259e-06       0.141   2.259e-06      -5.646
	Hfo_wO-           1.516e-06       0.095   1.516e-06      -5.819

-----------------------------Solution composition------------------------------

	Elements           Molality       Moles

	Cl                1.000e-02   1.000e-02
	Fe                4.100e-10   4.100e-10
	Na                1.000e-02   1.000e-02

----------------------------Description of solution----------------------------

                                       pH  =   7.000      Charge balance
                                       pe  =  11.711      Adjusted to redox equilibrium
                        Activity of water  =   1.000
                 Ionic strength (mol/kgw)  =   1.000e-02
                       Mass of water (kg)  =   1.000e+00
                 Total alkalinity (eq/kg)  =   2.268e-09
                    Total carbon (mol/kg)  =   0.000e+00
                       Total CO2 (mol/kg)  =   0.000e+00
                         Temperature (°C)  =  25.00
                  Electrical balance (eq)  =  -1.862e-09
 Percent error, 100*(Cat-|An|)/(Cat+|An|)  =  -0.00
                               Iterations  =  10
                                  Total H  = 1.110124e+02
                                  Total O  = 5.550622e+01

----------------------------Distribution of species----------------------------

                                               Log       Log       Log    mole V
   Species          Molality    Activity  Molality  Activity     Gamma   cm³/mol

   OH-             1.116e-07   1.005e-07    -6.952    -6.998    -0.046     (0)  
   H+              1.094e-07   9.994e-08    -6.961    -7.000    -0.039      0.00
   H2O             5.551e+01   9.997e-01     1.744    -0.000     0.000     18.07
Cl            1.000e-02
   Cl-             1.000e-02   8.989e-03    -2.000    -2.046    -0.046     (0)  
   FeCl+2          6.305e-19   4.211e-19   -18.200   -18.376    -0.175     (0)  
   FeCl2+          1.870e-20   1.691e-20   -19.728   -19.772    -0.044     (0)  
   FeCl3           1.517e-23   1.520e-23   -22.819   -22.818     0.001     (0)  
Fe(2)         4.824e-17
   Fe+2            4.813e-17   3.251e-17   -16.318   -16.488    -0.170     (0)  
   FeOH+           1.137e-19   1.028e-19   -18.944   -18.988    -0.044     (0)  
   Fe(OH)2         8.734e-24   8.754e-24   -23.059   -23.058     0.001     (0)  
   Fe(OH)3-        3.598e-27   3.253e-27   -26.444   -26.488    -0.044     (0)  
Fe(3)         4.100e-10
   Fe(OH)2+        3.666e-10   3.318e-10    -9.436    -9.479    -0.043     (0)  
   Fe(OH)3         3.890e-11   3.899e-11   -10.410   -10.409     0.001     (0)  
   Fe(OH)4-        4.309e-12   3.900e-12   -11.366   -11.409    -0.043     (0)  
   FeOH+2          1.500e-13   1.002e-13   -12.824   -12.999    -0.175     (0)  
   Fe+3            3.507e-18   1.551e-18   -17.455   -17.809    -0.354     (0)  
   FeCl+2          6.305e-19   4.211e-19   -18.200   -18.376    -0.175     (0)  
   FeCl2+          1.870e-20   1.691e-20   -19.728   -19.772    -0.044     (0)  
   FeCl3           1.517e-23   1.520e-23   -22.819   -22.818     0.001     (0)  
   Fe2(OH)2+4      1.409e-24   2.702e-25   -23.851   -24.568    -0.717     (0)  
   Fe3(OH)4+5      2.474e-31   1.873e-32   -30.607   -31.727    -1.121     (0)  
H(0)          0.000e+00
   H2              0.000e+00   0.000e+00   -40.573   -40.572     0.001     (0)  
Na            1.000e-02
   Na+             1.000e-02   9.030e-03    -2.000    -2.044    -0.044     (0)  
O(0)          1.157e-11
   O2              5.787e-12   5.801e-12   -11.238   -11.237     0.001     (0)  

------------------------------Saturation indices-------------------------------

  Phase               SI** log IAP   log K(298 K,   1 atm)

  Fe(OH)2.7Cl0.3    3.52      0.48   -3.04  Fe(OH)2.7Cl0.3
  Fe3(OH)8        -16.33      3.89   20.22  Fe3(OH)8
  Ferrihydrite      0.00      3.19    3.19  Fe(OH)3
  Goethite          2.69      3.19    0.50  FeOOH
  Halite           -5.67     -4.09    1.58  NaCl
  Hematite         10.39      6.38   -4.01  Fe2O3
  Lepidocrocite     1.82      3.19    1.37  FeOOH
  Maghemite        -0.00      6.38    6.39  Fe2O3
  Magnetite         0.16      3.89    3.74  Fe3O4
  O2(g)            -8.28     74.84   83.12  O2

**For a gas, SI = log10(fugacity). Fugacity = pressure * phi / 1 atm.
  For ideal gases, phi = 1.

Using solution 4.	
Using surface 4.	
Using pure phase assemblage 4.	

-------------------------------Phase assemblage--------------------------------

                                                      Moles in assemblage
Phase               SI  log IAP  log K(T, P)   Initial       Final       Delta

Ferrihydrite      0.00     3.19      3.19    8.000e-05   8.000e-05  -4.100e-10

------------------------------Surface composition------------------------------

Diffuse Double Layer Surface-Complexation Model

Hfo           
	  7.620e-07  Surface charge, eq
	  1.724e-02  sigma, C/m²
	  6.052e-02  psi, V
	 -2.356e+00  -F*psi/RT
	  9.482e-02  exp(-F*psi/RT)
	  5.330e+04  specific area, m²/mol Ferrihydrite
	  4.264e+00  m² for   8.000e-05 moles of Ferrihydrite


Hfo_s         
	  4.000e-07  moles	[0.005 mol/(mol Ferrihydrite)]
	                                   Mole                     Log
	Species               Moles    Fraction    Molality    Molality

	Hfo_sOH           3.056e-07       0.764   3.056e-07      -6.515
	Hfo_sOH2+         5.648e-08       0.141   5.648e-08      -7.248
	Hfo_sO-           3.789e-08       0.095   3.789e-08      -7.421

Hfo_w         
	  1.600e-05  moles	[0.2 mol/(mol Ferrihydrite)]
	                                   Mole                     Log
	Species               Moles    Fraction    Molality    Molality

	Hfo_wOH           1.223e-05       0.764   1.223e-05      -4.913
	Hfo_wOH2+         2.259e-06       0.141   2.259e-06      -5.646
	Hfo_wO-           1.516e-06       0.095   1.516e-06      -5.819

-----------------------------Solution composition------------------------------

	Elements           Molality       Moles

	Cl                1.000e-02   1.000e-02
	Fe                4.100e-10   4.100e-10
	Na                1.000e-02   1.000e-02

----------------------------Description of solution----------------------------

                                       pH  =   7.000      Charge balance
                                       pe  =  11.711      Adjusted to redox equilibrium
                        Activity of water  =   1.000
                 Ionic strength (mol/kgw)  =   1.000e-02
                       Mass of water (kg)  =   1.000e+00
                 Total alkalinity (eq/kg)  =   2.268e-09
                    Total carbon (mol/kg)  =   0.000e+00
                       Total CO2 (mol/kg)  =   0.000e+00
                         Temperature (°C)  =  25.00
                  Electrical balance (eq)  =  -1.862e-09
 Percent error, 100*(Cat-|An|)/(Cat+|An|)  =  -0.00
                               Iterations  =  10
                                  Total H  = 1.110124e+02
                                  Total O  = 5.550622e+01

----------------------------Distribution of species----------------------------

                                               Log       Log       Log    mole V
   Species          Molality    Activity  Molality  Activity     Gamma   cm³/mol

   OH-             1.116e-07   1.005e-07    -6.952    -6.998    -0.046     (0)  
   H+              1.094e-07   9.994e-08    -6.961    -7.000    -0.039      0.00
   H2O             5.551e+01   9.997e-01     1.744    -0.000     0.000     18.07
Cl            1.000e-02
   Cl-             1.000e-02   8.989e-03    -2.000    -2.046    -0.046     (0)  
   FeCl+2          6.305e-19   4.211e-19   -18.200   -18.376    -0.175     (0)  
   FeCl2+          1.870e-20   1.691e-20   -19.728   -19.772    -0.044     (0)  
   FeCl3           1.517e-23   1.520e-23   -22.819   -22.818     0.001     (0)  
Fe(2)         4.824e-17
   Fe+2            4.813e-17   3.251e-17   -16.318   -16.488    -0.170     (0)  
   FeOH+           1.137e-19   1.028e-19   -18.944   -18.988    -0.044     (0)  
   Fe(OH)2         8.734e-24   8.754e-24   -23.059   -23.058     0.001     (0)  
   Fe(OH)3-        3.598e-27   3.253e-27   -26.444   -26.488    -0.044     (0)  
Fe(3)         4.100e-10
   Fe(OH)2+        3.666e-10   3.318e-10    -9.436    -9.479    -0.043     (0)  
   Fe(OH)3         3.890e-11   3.899e-11   -10.410   -10.409     0.001     (0)  
   Fe(OH)4-        4.309e-12   3.900e-12   -11.366   -11.409    -0.043     (0)  
   FeOH+2          1.500e-13   1.002e-13   -12.824   -12.999    -0.175     (0)  
   Fe+3            3.507e-18   1.551e-18   -17.455   -17.809    -0.354     (0)  
   FeCl+2          6.305e-19   4.211e-19   -18.200   -18.376    -0.175     (0)  
   FeCl2+          1.870e-20   1.691e-20   -19.728   -19.772    -0.044     (0)  
   FeCl3           1.517e-23   1.520e-23   -22.819   -22.818     0.001     (0)  
   Fe2(OH)2+4      1.409e-24   2.702e-25   -23.851   -24.568    -0.717     (0)  
   Fe3(OH)4+5      2.474e-31   1.873e-32   -30.607   -31.727    -1.121     (0)  
H(0)          0.000e+00
   H2              0.000e+00   0.000e+00   -40.573   -40.572     0.001     (0)  
Na            1.000e-02
   Na+             1.000e-02   9.030e-03    -2.000    -2.044    -0.044     (0)  
O(0)          1.157e-11
   O2              5.787e-12   5.801e-12   -11.238   -11.237     0.001     (0)  

------------------------------Saturation indices-------------------------------

  Phase               SI** log IAP   log K(298 K,   1 atm)

  Fe(OH)2.7Cl0.3    3.52      0.48   -3.04  Fe(OH)2.7Cl0.3
  Fe3(OH)8        -16.33      3.89   20.22  Fe3(OH)8
  Ferrihydrite      0.00      3.19    3.19  Fe(OH)3
  Goethite          2.69      3.19    0.50  FeOOH
  Halite           -5.67     -4.09    1.58  NaCl
  Hematite         10.39      6.38   -4.01  Fe2O3
  Lepidocrocite     1.82      3.19    1.37  FeOOH
  Maghemite        -0.00      6.38    6.39  Fe2O3
  Magnetite         0.16      3.89    3.74  Fe3O4
  O2(g)            -8.28     74.84   83.12  O2

**For a gas, SI = log10(fugacity). Fugacity = pressure * phi / 1 atm.
  For ideal gases, phi = 1.

Using solution 5.	
Using surface 5.	
Using pure phase assemblage 5.	

-------------------------------Phase assemblage--------------------------------

                                                      Moles in assemblage
Phase               SI  log IAP  log K(T, P)   Initial       Final       Delta

Ferrihydrite      0.00     3.19      3.19    8.000e-05   8.000e-05  -4.100e-10

------------------------------Surface composition------------------------------

Diffuse Double Layer Surface-Complexation Model

Hfo           
	  7.620e-07  Surface charge, eq
	  1.724e-02  sigma, C/m²
	  6.052e-02  psi, V
	 -2.356e+00  -F*psi/RT
	  9.482e-02  exp(-F*psi/RT)
	  5.330e+04  specific area, m²/mol Ferrihydrite
	  4.264e+00  m² for   8.000e-05 moles of Ferrihydrite


Hfo_s         
	  4.000e-07  moles	[0.005 mol/(mol Ferrihydrite)]
	                                   Mole                     Log
	Species               Moles    Fraction    Molality    Molality

	Hfo_sOH           3.056e-07       0.764   3.056e-07      -6.515
	Hfo_sOH2+         5.648e-08       0.141   5.648e-08      -7.248
	Hfo_sO-           3.789e-08       0.095   3.789e-08      -7.421

Hfo_w         
	  1.600e-05  moles	[0.2 mol/(mol Ferrihydrite)]
	                                   Mole                     Log
	Species               Moles    Fraction    Molality    Molality

	Hfo_wOH           1.223e-05       0.764   1.223e-05      -4.913
	Hfo_wOH2+         2.259e-06       0.141   2.259e-06      -5.646
	Hfo_wO-           1.516e-06       0.095   1.516e-06      -5.819

-----------------------------Solution composition------------------------------

	Elements           Molality       Moles

	Cl                1.000e-02   1.000e-02
	Fe                4.100e-10   4.100e-10
	Na                1.000e-02   1.000e-02

----------------------------Description of solution----------------------------

                                       pH  =   7.000      Charge balance
                                       pe  =  11.711      Adjusted to redox equilibrium
                        Activity of water  =   1.000
                 Ionic strength (mol/kgw)  =   1.000e-02
                       Mass of water (kg)  =   1.000e+00
                 Total alkalinity (eq/kg)  =   2.268e-09
                    Total carbon (mol/kg)  =   0.000e+00
                       Total CO2 (mol/kg)  =   0.000e+00
                         Temperature (°C)  =  25.00
                  Electrical balance (eq)  =  -1.862e-09
 Percent error, 100*(Cat-|An|)/(Cat+|An|)  =  -0.00
                               Iterations  =  10
                                  Total H  = 1.110124e+02
                                  Total O  = 5.550622e+01

----------------------------Distribution of species----------------------------

                                               Log       Log       Log    mole V
   Species          Molality    Activity  Molality  Activity     Gamma   cm³/mol

   OH-             1.116e-07   1.005e-07    -6.952    -6.998    -0.046     (0)  
   H+              1.094e-07   9.994e-08    -6.961    -7.000    -0.039      0.00
   H2O             5.551e+01   9.997e-01     1.744    -0.000     0.000     18.07
Cl            1.000e-02
   Cl-             1.000e-02   8.989e-03    -2.000    -2.046    -0.046     (0)  
   FeCl+2          6.305e-19   4.211e-19   -18.200   -18.376    -0.175     (0)  
   FeCl2+          1.870e-20   1.691e-20   -19.728   -19.772    -0.044     (0)  
   FeCl3           1.517e-23   1.520e-23   -22.819   -22.818     0.001     (0)  
Fe(2)         4.824e-17
   Fe+2            4.813e-17   3.251e-17   -16.318   -16.488    -0.170     (0)  
   FeOH+           1.137e-19   1.028e-19   -18.944   -18.988    -0.044     (0)  
   Fe(OH)2         8.734e-24   8.754e-24   -23.059   -23.058     0.001     (0)  
   Fe(OH)3-        3.598e-27   3.253e-27   -26.444   -26.488    -0.044     (0)  
Fe(3)         4.100e-10
   Fe(OH)2+        3.666e-10   3.318e-10    -9.436    -9.479    -0.043     (0)  
   Fe(OH)3         3.890e-11   3.899e-11   -10.410   -10.409     0.001     (0)  
   Fe(OH)4-        4.309e-12   3.900e-12   -11.366   -11.409    -0.043     (0)  
   FeOH+2          1.500e-13   1.002e-13   -12.824   -12.999    -0.175     (0)  
   Fe+3            3.507e-18   1.551e-18   -17.455   -17.809    -0.354     (0)  
   FeCl+2          6.305e-19   4.211e-19   -18.200   -18.376    -0.175     (0)  
   FeCl2+          1.870e-20   1.691e-20   -19.728   -19.772    -0.044     (0)  
   FeCl3           1.517e-23   1.520e-23   -22.819   -22.818     0.001     (0)  
   Fe2(OH)2+4      1.409e-24   2.702e-25   -23.851   -24.568    -0.717     (0)  
   Fe3(OH)4+5      2.474e-31   1.873e-32   -30.607   -31.727    -1.121     (0)  
H(0)          0.000e+00
   H2              0.000e+00   0.000e+00   -40.573   -40.572     0.001     (0)  
Na            1.000e-02
   Na+             1.000e-02   9.030e-03    -2.000    -2.044    -0.044     (0)  
O(0)          1.157e-11
   O2              5.787e-12   5.801e-12   -11.238   -11.237     0.001     (0)  

------------------------------Saturation indices-------------------------------

  Phase               SI** log IAP   log K(298 K,   1 atm)

  Fe(OH)2.7Cl0.3    3.52      0.48   -3.04  Fe(OH)2.7Cl0.3
  Fe3(OH)8        -16.33      3.89   20.22  Fe3(OH)8
  Ferrihydrite      0.00      3.19    3.19  Fe(OH)3
  Goethite          2.69      3.19    0.50  FeOOH
  Halite           -5.67     -4.09    1.58  NaCl
  Hematite         10.39      6.38   -4.01  Fe2O3
  Lepidocrocite     1.82      3.19    1.37  FeOOH
  Maghemite        -0.00      6.38    6.39  Fe2O3
  Magnetite         0.16      3.89    3.74  Fe3O4
  O2(g)            -8.28     74.84   83.12  O2

**For a gas, SI = log10(fugacity). Fugacity = pressure * phi / 1 atm.
  For ideal gases, phi = 1.

Using solution 6.	
Using surface 6.	
Using pure phase assemblage 6.	

-------------------------------Phase assemblage--------------------------------

                                                      Moles in assemblage
Phase               SI  log IAP  log K(T, P)   Initial       Final       Delta

Ferrihydrite      0.00     3.19      3.19    8.000e-05   8.000e-05  -4.100e-10

------------------------------Surface composition------------------------------

Diffuse Double Layer Surface-Complexation Model

Hfo           
	  7.620e-07  Surface charge, eq
	  1.724e-02  sigma, C/m²
	  6.052e-02  psi, V
	 -2.356e+00  -F*psi/RT
	  9.482e-02  exp(-F*psi/RT)
	  5.330e+04  specific area, m²/mol Ferrihydrite
	  4.264e+00  m² for   8.000e-05 moles of Ferrihydrite


Hfo_s         
	  4.000e-07  moles	[0.005 mol/(mol Ferrihydrite)]
	                                   Mole                     Log
	Species               Moles    Fraction    Molality    Molality

	Hfo_sOH           3.056e-07       0.764   3.056e-07      -6.515
	Hfo_sOH2+         5.648e-08       0.141   5.648e-08      -7.248
	Hfo_sO-           3.789e-08       0.095   3.789e-08      -7.421

Hfo_w         
	  1.600e-05  moles	[0.2 mol/(mol Ferrihydrite)]
	                                   Mole                     Log
	Species               Moles    Fraction    Molality    Molality

	Hfo_wOH           1.223e-05       0.764   1.223e-05      -4.913
	Hfo_wOH2+         2.259e-06       0.141   2.259e-06      -5.646
	Hfo_wO-           1.516e-06       0.095   1.516e-06      -5.819

-----------------------------Solution composition------------------------------

	Elements           Molality       Moles

	Cl                1.000e-02   1.000e-02
	Fe                4.100e-10   4.100e-10
	Na                1.000e-02   1.000e-02

----------------------------Description of solution----------------------------

                                       pH  =   7.000      Charge balance
                                       pe  =  11.711      Adjusted to redox equilibrium
                        Activity of water  =   1.000
                 Ionic strength (mol/kgw)  =   1.000e-02
                       Mass of water (kg)  =   1.000e+00
                 Total alkalinity (eq/kg)  =   2.268e-09
                    Total carbon (mol/kg)  =   0.000e+00
                       Total CO2 (mol/kg)  =   0.000e+00
                         Temperature (°C)  =  25.00
                  Electrical balance (eq)  =  -1.862e-09
 Percent error, 100*(Cat-|An|)/(Cat+|An|)  =  -0.00
                               Iterations  =  10
                                  Total H  = 1.110124e+02
                                  Total O  = 5.550622e+01

----------------------------Distribution of species----------------------------

                                               Log       Log       Log    mole V
   Species          Molality    Activity  Molality  Activity     Gamma   cm³/mol

   OH-             1.116e-07   1.005e-07    -6.952    -6.998    -0.046     (0)  
   H+              1.094e-07   9.994e-08    -6.961    -7.000    -0.039      0.00
   H2O             5.551e+01   9.997e-01     1.744    -0.000     0.000     18.07
Cl            1.000e-02
   Cl-             1.000e-02   8.989e-03    -2.000    -2.046    -0.046     (0)  
   FeCl+2          6.305e-19   4.211e-19   -18.200   -18.376    -0.175     (0)  
   FeCl2+          1.870e-20   1.691e-20   -19.728   -19.772    -0.044     (0)  
   FeCl3           1.517e-23   1.520e-23   -22.819   -22.818     0.001     (0)  
Fe(2)         4.824e-17
   Fe+2            4.813e-17   3.251e-17   -16.318   -16.488    -0.170     (0)  
   FeOH+           1.137e-19   1.028e-19   -18.944   -18.988    -0.044     (0)  
   Fe(OH)2         8.734e-24   8.754e-24   -23.059   -23.058     0.001     (0)  
   Fe(OH)3-        3.598e-27   3.253e-27   -26.444   -26.488    -0.044     (0)  
Fe(3)         4.100e-10
   Fe(OH)2+        3.666e-10   3.318e-10    -9.436    -9.479    -0.043     (0)  
   Fe(OH)3         3.890e-11   3.899e-11   -10.410   -10.409     0.001     (0)  
   Fe(OH)4-        4.309e-12   3.900e-12   -11.366   -11.409    -0.043     (0)  
   FeOH+2          1.500e-13   1.002e-13   -12.824   -12.999    -0.175     (0)  
   Fe+3            3.507e-18   1.551e-18   -17.455   -17.809    -0.354     (0)  
   FeCl+2          6.305e-19   4.211e-19   -18.200   -18.376    -0.175     (0)  
   FeCl2+          1.870e-20   1.691e-20   -19.728   -19.772    -0.044     (0)  
   FeCl3           1.517e-23   1.520e-23   -22.819   -22.818     0.001     (0)  
   Fe2(OH)2+4      1.409e-24   2.702e-25   -23.851   -24.568    -0.717     (0)  
   Fe3(OH)4+5      2.474e-31   1.873e-32   -30.607   -31.727    -1.121     (0)  
H(0)          0.000e+00
   H2              0.000e+00   0.000e+00   -40.573   -40.572     0.001     (0)  
Na            1.000e-02
   Na+             1.000e-02   9.030e-03    -2.000    -2.044    -0.044     (0)  
O(0)          1.157e-11
   O2              5.787e-12   5.801e-12   -11.238   -11.237     0.001     (0)  

------------------------------Saturation indices-------------------------------

  Phase               SI** log IAP   log K(298 K,   1 atm)

  Fe(OH)2.7Cl0.3    3.52      0.48   -3.04  Fe(OH)2.7Cl0.3
  Fe3(OH)8        -16.33      3.89   20.22  Fe3(OH)8
  Ferrihydrite      0.00      3.19    3.19  Fe(OH)3
  Goethite          2.69      3.19    0.50  FeOOH
  Halite           -5.67     -4.09    1.58  NaCl
  Hematite         10.39      6.38   -4.01  Fe2O3
  Lepidocrocite     1.82      3.19    1.37  FeOOH
  Maghemite        -0.00      6.38    6.39  Fe2O3
  Magnetite         0.16      3.89    3.74  Fe3O4
  O2(g)            -8.28     74.84   83.12  O2

**For a gas, SI = log10(fugacity). Fugacity = pressure * phi / 1 atm.
  For ideal gases, phi = 1.

Using solution 7.	
Using surface 7.	
Using pure phase assemblage 7.	

-------------------------------Phase assemblage--------------------------------

                                                      Moles in assemblage
Phase               SI  log IAP  log K(T, P)   Initial       Final       Delta

Ferrihydrite      0.00     3.19      3.19    8.000e-05   8.000e-05  -4.100e-10

------------------------------Surface composition------------------------------

Diffuse Double Layer Surface-Complexation Model

Hfo           
	  7.620e-07  Surface charge, eq
	  1.724e-02  sigma, C/m²
	  6.052e-02  psi, V
	 -2.356e+00  -F*psi/RT
	  9.482e-02  exp(-F*psi/RT)
	  5.330e+04  specific area, m²/mol Ferrihydrite
	  4.264e+00  m² for   8.000e-05 moles of Ferrihydrite


Hfo_s         
	  4.000e-07  moles	[0.005 mol/(mol Ferrihydrite)]
	                                   Mole                     Log
	Species               Moles    Fraction    Molality    Molality

	Hfo_sOH           3.056e-07       0.764   3.056e-07      -6.515
	Hfo_sOH2+         5.648e-08       0.141   5.648e-08      -7.248
	Hfo_sO-           3.789e-08       0.095   3.789e-08      -7.421

Hfo_w         
	  1.600e-05  moles	[0.2 mol/(mol Ferrihydrite)]
	                                   Mole                     Log
	Species               Moles    Fraction    Molality    Molality

	Hfo_wOH           1.223e-05       0.764   1.223e-05      -4.913
	Hfo_wOH2+         2.259e-06       0.141   2.259e-06      -5.646
	Hfo_wO-           1.516e-06       0.095   1.516e-06      -5.819

-----------------------------Solution composition------------------------------

	Elements           Molality       Moles

	Cl                1.000e-02   1.000e-02
	Fe                4.100e-10   4.100e-10
	Na                1.000e-02   1.000e-02

----------------------------Description of solution----------------------------

                                       pH  =   7.000      Charge balance
                                       pe  =  11.711      Adjusted to redox equilibrium
                        Activity of water  =   1.000
                 Ionic strength (mol/kgw)  =   1.000e-02
                       Mass of water (kg)  =   1.000e+00
                 Total alkalinity (eq/kg)  =   2.268e-09
                    Total carbon (mol/kg)  =   0.000e+00
                       Total CO2 (mol/kg)  =   0.000e+00
                         Temperature (°C)  =  25.00
                  Electrical balance (eq)  =  -1.862e-09
 Percent error, 100*(Cat-|An|)/(Cat+|An|)  =  -0.00
                               Iterations  =  10
                                  Total H  = 1.110124e+02
                                  Total O  = 5.550622e+01

----------------------------Distribution of species----------------------------

                                               Log       Log       Log    mole V
   Species          Molality    Activity  Molality  Activity     Gamma   cm³/mol

   OH-             1.116e-07   1.005e-07    -6.952    -6.998    -0.046     (0)  
   H+              1.094e-07   9.994e-08    -6.961    -7.000    -0.039      0.00
   H2O             5.551e+01   9.997e-01     1.744    -0.000     0.000     18.07
Cl            1.000e-02
   Cl-             1.000e-02   8.989e-03    -2.000    -2.046    -0.046     (0)  
   FeCl+2          6.305e-19   4.211e-19   -18.200   -18.376    -0.175     (0)  
   FeCl2+          1.870e-20   1.691e-20   -19.728   -19.772    -0.044     (0)  
   FeCl3           1.517e-23   1.520e-23   -22.819   -22.818     0.001     (0)  
Fe(2)         4.824e-17
   Fe+2            4.813e-17   3.251e-17   -16.318   -16.488    -0.170     (0)  
   FeOH+           1.137e-19   1.028e-19   -18.944   -18.988    -0.044     (0)  
   Fe(OH)2         8.734e-24   8.754e-24   -23.059   -23.058     0.001     (0)  
   Fe(OH)3-        3.598e-27   3.253e-27   -26.444   -26.488    -0.044     (0)  
Fe(3)         4.100e-10
   Fe(OH)2+        3.666e-10   3.318e-10    -9.436    -9.479    -0.043     (0)  
   Fe(OH)3         3.890e-11   3.899e-11   -10.410   -10.409     0.001     (0)  
   Fe(OH)4-        4.309e-12   3.900e-12   -11.366   -11.409    -0.043     (0)  
   FeOH+2          1.500e-13   1.002e-13   -12.824   -12.999    -0.175     (0)  
   Fe+3            3.507e-18   1.551e-18   -17.455   -17.809    -0.354     (0)  
   FeCl+2          6.305e-19   4.211e-19   -18.200   -18.376    -0.175     (0)  
   FeCl2+          1.870e-20   1.691e-20   -19.728   -19.772    -0.044     (0)  
   FeCl3           1.517e-23   1.520e-23   -22.819   -22.818     0.001     (0)  
   Fe2(OH)2+4      1.409e-24   2.702e-25   -23.851   -24.568    -0.717     (0)  
   Fe3(OH)4+5      2.474e-31   1.873e-32   -30.607   -31.727    -1.121     (0)  
H(0)          0.000e+00
   H2              0.000e+00   0.000e+00   -40.573   -40.572     0.001     (0)  
Na            1.000e-02
   Na+             1.000e-02   9.030e-03    -2.000    -2.044    -0.044     (0)  
O(0)          1.157e-11
   O2              5.787e-12   5.801e-12   -11.238   -11.237     0.001     (0)  

------------------------------Saturation indices-------------------------------

  Phase               SI** log IAP   log K(298 K,   1 atm)

  Fe(OH)2.7Cl0.3    3.52      0.48   -3.04  Fe(OH)2.7Cl0.3
  Fe3(OH)8        -16.33      3.89   20.22  Fe3(OH)8
  Ferrihydrite      0.00      3.19    3.19  Fe(OH)3
  Goethite          2.69      3.19    0.50  FeOOH
  Halite           -5.67     -4.09    1.58  NaCl
  Hematite         10.39      6.38   -4.01  Fe2O3
  Lepidocrocite     1.82      3.19    1.37  FeOOH
  Maghemite        -0.00      6.38    6.39  Fe2O3
  Magnetite         0.16      3.89    3.74  Fe3O4
  O2(g)            -8.28     74.84   83.12  O2

**For a gas, SI = log10(fugacity). Fugacity = pressure * phi / 1 atm.
  For ideal gases, phi = 1.

Using solution 8.	
Using surface 8.	
Using pure phase assemblage 8.	

-------------------------------Phase assemblage--------------------------------

                                                      Moles in assemblage
Phase               SI  log IAP  log K(T, P)   Initial       Final       Delta

Ferrihydrite      0.00     3.19      3.19    8.000e-05   8.000e-05  -4.100e-10

------------------------------Surface composition------------------------------

Diffuse Double Layer Surface-Complexation Model

Hfo           
	  7.620e-07  Surface charge, eq
	  1.724e-02  sigma, C/m²
	  6.052e-02  psi, V
	 -2.356e+00  -F*psi/RT
	  9.482e-02  exp(-F*psi/RT)
	  5.330e+04  specific area, m²/mol Ferrihydrite
	  4.264e+00  m² for   8.000e-05 moles of Ferrihydrite


Hfo_s         
	  4.000e-07  moles	[0.005 mol/(mol Ferrihydrite)]
	                                   Mole                     Log
	Species               Moles    Fraction    Molality    Molality

	Hfo_sOH           3.056e-07       0.764   3.056e-07      -6.515
	Hfo_sOH2+         5.648e-08       0.141   5.648e-08      -7.248
	Hfo_sO-           3.789e-08       0.095   3.789e-08      -7.421

Hfo_w         
	  1.600e-05  moles	[0.2 mol/(mol Ferrihydrite)]
	                                   Mole                     Log
	Species               Moles    Fraction    Molality    Molality

	Hfo_wOH           1.223e-05       0.764   1.223e-05      -4.913
	Hfo_wOH2+         2.259e-06       0.141   2.259e-06      -5.646
	Hfo_wO-           1.516e-06       0.095   1.516e-06      -5.819

-----------------------------Solution composition------------------------------

	Elements           Molality       Moles

	Cl                1.000e-02   1.000e-02
	Fe                4.100e-10   4.100e-10
	Na                1.000e-02   1.000e-02

----------------------------Description of solution----------------------------

                                       pH  =   7.000      Charge balance
                                       pe  =  11.711      Adjusted to redox equilibrium
                        Activity of water  =   1.000
                 Ionic strength (mol/kgw)  =   1.000e-02
                       Mass of water (kg)  =   1.000e+00
                 Total alkalinity (eq/kg)  =   2.268e-09
                    Total carbon (mol/kg)  =   0.000e+00
                       Total CO2 (mol/kg)  =   0.000e+00
                         Temperature (°C)  =  25.00
                  Electrical balance (eq)  =  -1.862e-09
 Percent error, 100*(Cat-|An|)/(Cat+|An|)  =  -0.00
                               Iterations  =  10
                                  Total H  = 1.110124e+02
                                  Total O  = 5.550622e+01

----------------------------Distribution of species----------------------------

                                               Log       Log       Log    mole V
   Species          Molality    Activity  Molality  Activity     Gamma   cm³/mol

   OH-             1.116e-07   1.005e-07    -6.952    -6.998    -0.046     (0)  
   H+              1.094e-07   9.994e-08    -6.961    -7.000    -0.039      0.00
   H2O             5.551e+01   9.997e-01     1.744    -0.000     0.000     18.07
Cl            1.000e-02
   Cl-             1.000e-02   8.989e-03    -2.000    -2.046    -0.046     (0)  
   FeCl+2          6.305e-19   4.211e-19   -18.200   -18.376    -0.175     (0)  
   FeCl2+          1.870e-20   1.691e-20   -19.728   -19.772    -0.044     (0)  
   FeCl3           1.517e-23   1.520e-23   -22.819   -22.818     0.001     (0)  
Fe(2)         4.824e-17
   Fe+2            4.813e-17   3.251e-17   -16.318   -16.488    -0.170     (0)  
   FeOH+           1.137e-19   1.028e-19   -18.944   -18.988    -0.044     (0)  
   Fe(OH)2         8.734e-24   8.754e-24   -23.059   -23.058     0.001     (0)  
   Fe(OH)3-        3.598e-27   3.253e-27   -26.444   -26.488    -0.044     (0)  
Fe(3)         4.100e-10
   Fe(OH)2+        3.666e-10   3.318e-10    -9.436    -9.479    -0.043     (0)  
   Fe(OH)3         3.890e-11   3.899e-11   -10.410   -10.409     0.001     (0)  
   Fe(OH)4-        4.309e-12   3.900e-12   -11.366   -11.409    -0.043     (0)  
   FeOH+2          1.500e-13   1.002e-13   -12.824   -12.999    -0.175     (0)  
   Fe+3            3.507e-18   1.551e-18   -17.455   -17.809    -0.354     (0)  
   FeCl+2          6.305e-19   4.211e-19   -18.200   -18.376    -0.175     (0)  
   FeCl2+          1.870e-20   1.691e-20   -19.728   -19.772    -0.044     (0)  
   FeCl3           1.517e-23   1.520e-23   -22.819   -22.818     0.001     (0)  
   Fe2(OH)2+4      1.409e-24   2.702e-25   -23.851   -24.568    -0.717     (0)  
   Fe3(OH)4+5      2.474e-31   1.873e-32   -30.607   -31.727    -1.121     (0)  
H(0)          0.000e+00
   H2              0.000e+00   0.000e+00   -40.573   -40.572     0.001     (0)  
Na            1.000e-02
   Na+             1.000e-02   9.030e-03    -2.000    -2.044    -0.044     (0)  
O(0)          1.157e-11
   O2              5.787e-12   5.801e-12   -11.238   -11.237     0.001     (0)  

------------------------------Saturation indices-------------------------------

  Phase               SI** log IAP   log K(298 K,   1 atm)

  Fe(OH)2.7Cl0.3    3.52      0.48   -3.04  Fe(OH)2.7Cl0.3
  Fe3(OH)8        -16.33      3.89   20.22  Fe3(OH)8
  Ferrihydrite      0.00      3.19    3.19  Fe(OH)3
  Goethite          2.69      3.19    0.50  FeOOH
  Halite           -5.67     -4.09    1.58  NaCl
  Hematite         10.39      6.38   -4.01  Fe2O3
  Lepidocrocite     1.82      3.19    1.37  FeOOH
  Maghemite        -0.00      6.38    6.39  Fe2O3
  Magnetite         0.16      3.89    3.74  Fe3O4
  O2(g)            -8.28     74.84   83.12  O2

**For a gas, SI = log10(fugacity). Fugacity = pressure * phi / 1 atm.
  For ideal gases, phi = 1.

Using solution 9.	
Using surface 9.	
Using pure phase assemblage 9.	

-------------------------------Phase assemblage--------------------------------

                                                      Moles in assemblage
Phase               SI  log IAP  log K(T, P)   Initial       Final       Delta

Ferrihydrite      0.00     3.19      3.19    8.000e-05   8.000e-05  -4.100e-10

------------------------------Surface composition------------------------------

Diffuse Double Layer Surface-Complexation Model

Hfo           
	  7.620e-07  Surface charge, eq
	  1.724e-02  sigma, C/m²
	  6.052e-02  psi, V
	 -2.356e+00  -F*psi/RT
	  9.482e-02  exp(-F*psi/RT)
	  5.330e+04  specific area, m²/mol Ferrihydrite
	  4.264e+00  m² for   8.000e-05 moles of Ferrihydrite


Hfo_s         
	  4.000e-07  moles	[0.005 mol/(mol Ferrihydrite)]
	                                   Mole                     Log
	Species               Moles    Fraction    Molality    Molality

	Hfo_sOH           3.056e-07       0.764   3.056e-07      -6.515
	Hfo_sOH2+         5.648e-08       0.141   5.648e-08      -7.248
	Hfo_sO-           3.789e-08       0.095   3.789e-08      -7.421

Hfo_w         
	  1.600e-05  moles	[0.2 mol/(mol Ferrihydrite)]
	                                   Mole                     Log
	Species               Moles    Fraction    Molality    Molality

	Hfo_wOH           1.223e-05       0.764   1.223e-05      -4.913
	Hfo_wOH2+         2.259e-06       0.141   2.259e-06      -5.646
	Hfo_wO-           1.516e-06       0.095   1.516e-06      -5.819

-----------------------------Solution composition------------------------------

	Elements           Molality       Moles

	Cl                1.000e-02   1.000e-02
	Fe                4.100e-10   4.100e-10
	Na                1.000e-02   1.000e-02

----------------------------Description of solution----------------------------

                                       pH  =   7.000      Charge balance
                                       pe  =  11.711      Adjusted to redox equilibrium
                        Activity of water  =   1.000
                 Ionic strength (mol/kgw)  =   1.000e-02
                       Mass of water (kg)  =   1.000e+00
                 Total alkalinity (eq/kg)  =   2.268e-09
                    Total carbon (mol/kg)  =   0.000e+00
                       Total CO2 (mol/kg)  =   0.000e+00
                         Temperature (°C)  =  25.00
                  Electrical balance (eq)  =  -1.862e-09
 Percent error, 100*(Cat-|An|)/(Cat+|An|)  =  -0.00
                               Iterations  =  10
                                  Total H  = 1.110124e+02
                                  Total O  = 5.550622e+01

----------------------------Distribution of species----------------------------

                                               Log       Log       Log    mole V
   Species          Molality    Activity  Molality  Activity     Gamma   cm³/mol

   OH-             1.116e-07   1.005e-07    -6.952    -6.998    -0.046     (0)  
   H+              1.094e-07   9.994e-08    -6.961    -7.000    -0.039      0.00
   H2O             5.551e+01   9.997e-01     1.744    -0.000     0.000     18.07
Cl            1.000e-02
   Cl-             1.000e-02   8.989e-03    -2.000    -2.046    -0.046     (0)  
   FeCl+2          6.305e-19   4.211e-19   -18.200   -18.376    -0.175     (0)  
   FeCl2+          1.870e-20   1.691e-20   -19.728   -19.772    -0.044     (0)  
   FeCl3           1.517e-23   1.520e-23   -22.819   -22.818     0.001     (0)  
Fe(2)         4.824e-17
   Fe+2            4.813e-17   3.251e-17   -16.318   -16.488    -0.170     (0)  
   FeOH+           1.137e-19   1.028e-19   -18.944   -18.988    -0.044     (0)  
   Fe(OH)2         8.734e-24   8.754e-24   -23.059   -23.058     0.001     (0)  
   Fe(OH)3-        3.598e-27   3.253e-27   -26.444   -26.488    -0.044     (0)  
Fe(3)         4.100e-10
   Fe(OH)2+        3.666e-10   3.318e-10    -9.436    -9.479    -0.043     (0)  
   Fe(OH)3         3.890e-11   3.899e-11   -10.410   -10.409     0.001     (0)  
   Fe(OH)4-        4.309e-12   3.900e-12   -11.366   -11.409    -0.043     (0)  
   FeOH+2          1.500e-13   1.002e-13   -12.824   -12.999    -0.175     (0)  
   Fe+3            3.507e-18   1.551e-18   -17.455   -17.809    -0.354     (0)  
   FeCl+2          6.305e-19   4.211e-19   -18.200   -18.376    -0.175     (0)  
   FeCl2+          1.870e-20   1.691e-20   -19.728   -19.772    -0.044     (0)  
   FeCl3           1.517e-23   1.520e-23   -22.819   -22.818     0.001     (0)  
   Fe2(OH)2+4      1.409e-24   2.702e-25   -23.851   -24.568    -0.717     (0)  
   Fe3(OH)4+5      2.474e-31   1.873e-32   -30.607   -31.727    -1.121     (0)  
H(0)          0.000e+00
   H2              0.000e+00   0.000e+00   -40.573   -40.572     0.001     (0)  
Na            1.000e-02
   Na+             1.000e-02   9.030e-03    -2.000    -2.044    -0.044     (0)  
O(0)          1.157e-11
   O2              5.787e-12   5.801e-12   -11.238   -11.237     0.001     (0)  

------------------------------Saturation indices-------------------------------

  Phase               SI** log IAP   log K(298 K,   1 atm)

  Fe(OH)2.7Cl0.3    3.52      0.48   -3.04  Fe(OH)2.7Cl0.3
  Fe3(OH)8        -16.33      3.89   20.22  Fe3(OH)8
  Ferrihydrite      0.00      3.19    3.19  Fe(OH)3
  Goethite          2.69      3.19    0.50  FeOOH
  Halite           -5.67     -4.09    1.58  NaCl
  Hematite         10.39      6.38   -4.01  Fe2O3
  Lepidocrocite     1.82      3.19    1.37  FeOOH
  Maghemite        -0.00      6.38    6.39  Fe2O3
  Magnetite         0.16      3.89    3.74  Fe3O4
  O2(g)            -8.28     74.84   83.12  O2

**For a gas, SI = log10(fugacity). Fugacity = pressure * phi / 1 atm.
  For ideal gases, phi = 1.

Using solution 10.	
Using surface 10.	
Using pure phase assemblage 10.	

-------------------------------Phase assemblage--------------------------------

                                                      Moles in assemblage
Phase               SI  log IAP  log K(T, P)   Initial       Final       Delta

Ferrihydrite      0.00     3.19      3.19    8.000e-05   8.000e-05  -4.100e-10

------------------------------Surface composition------------------------------

Diffuse Double Layer Surface-Complexation Model

Hfo           
	  7.620e-07  Surface charge, eq
	  1.724e-02  sigma, C/m²
	  6.052e-02  psi, V
	 -2.356e+00  -F*psi/RT
	  9.482e-02  exp(-F*psi/RT)
	  5.330e+04  specific area, m²/mol Ferrihydrite
	  4.264e+00  m² for   8.000e-05 moles of Ferrihydrite


Hfo_s         
	  4.000e-07  moles	[0.005 mol/(mol Ferrihydrite)]
	                                   Mole                     Log
	Species               Moles    Fraction    Molality    Molality

	Hfo_sOH           3.056e-07       0.764   3.056e-07      -6.515
	Hfo_sOH2+         5.648e-08       0.141   5.648e-08      -7.248
	Hfo_sO-           3.789e-08       0.095   3.789e-08      -7.421

Hfo_w         
	  1.600e-05  moles	[0.2 mol/(mol Ferrihydrite)]
	                                   Mole                     Log
	Species               Moles    Fraction    Molality    Molality

	Hfo_wOH           1.223e-05       0.764   1.223e-05      -4.913
	Hfo_wOH2+         2.259e-06       0.141   2.259e-06      -5.646
	Hfo_wO-           1.516e-06       0.095   1.516e-06      -5.819

-----------------------------Solution composition------------------------------

	Elements           Molality       Moles

	Cl                1.000e-02   1.000e-02
	Fe                4.100e-10   4.100e-10
	Na                1.000e-02   1.000e-02

----------------------------Description of solution----------------------------

                                       pH  =   7.000      Charge balance
                                       pe  =  11.711      Adjusted to redox equilibrium
                        Activity of water  =   1.000
                 Ionic strength (mol/kgw)  =   1.000e-02
                       Mass of water (kg)  =   1.000e+00
                 Total alkalinity (eq/kg)  =   2.268e-09
                    Total carbon (mol/kg)  =   0.000e+00
                       Total CO2 (mol/kg)  =   0.000e+00
                         Temperature (°C)  =  25.00
                  Electrical balance (eq)  =  -1.862e-09
 Percent error, 100*(Cat-|An|)/(Cat+|An|)  =  -0.00
                               Iterations  =  10
                                  Total H  = 1.110124e+02
                                  Total O  = 5.550622e+01

----------------------------Distribution of species----------------------------

                                               Log       Log       Log    mole V
   Species          Molality    Activity  Molality  Activity     Gamma   cm³/mol

   OH-             1.116e-07   1.005e-07    -6.952    -6.998    -0.046     (0)  
   H+              1.094e-07   9.994e-08    -6.961    -7.000    -0.039      0.00
   H2O             5.551e+01   9.997e-01     1.744    -0.000     0.000     18.07
Cl            1.000e-02
   Cl-             1.000e-02   8.989e-03    -2.000    -2.046    -0.046     (0)  
   FeCl+2          6.305e-19   4.211e-19   -18.200   -18.376    -0.175     (0)  
   FeCl2+          1.870e-20   1.691e-20   -19.728   -19.772    -0.044     (0)  
   FeCl3           1.517e-23   1.520e-23   -22.819   -22.818     0.001     (0)  
Fe(2)         4.824e-17
   Fe+2            4.813e-17   3.251e-17   -16.318   -16.488    -0.170     (0)  
   FeOH+           1.137e-19   1.028e-19   -18.944   -18.988    -0.044     (0)  
   Fe(OH)2         8.734e-24   8.754e-24   -23.059   -23.058     0.001     (0)  
   Fe(OH)3-        3.598e-27   3.253e-27   -26.444   -26.488    -0.044     (0)  
Fe(3)         4.100e-10
   Fe(OH)2+        3.666e-10   3.318e-10    -9.436    -9.479    -0.043     (0)  
   Fe(OH)3         3.890e-11   3.899e-11   -10.410   -10.409     0.001     (0)  
   Fe(OH)4-        4.309e-12   3.900e-12   -11.366   -11.409    -0.043     (0)  
   FeOH+2          1.500e-13   1.002e-13   -12.824   -12.999    -0.175     (0)  
   Fe+3            3.507e-18   1.551e-18   -17.455   -17.809    -0.354     (0)  
   FeCl+2          6.305e-19   4.211e-19   -18.200   -18.376    -0.175     (0)  
   FeCl2+          1.870e-20   1.691e-20   -19.728   -19.772    -0.044     (0)  
   FeCl3           1.517e-23   1.520e-23   -22.819   -22.818     0.001     (0)  
   Fe2(OH)2+4      1.409e-24   2.702e-25   -23.851   -24.568    -0.717     (0)  
   Fe3(OH)4+5      2.474e-31   1.873e-32   -30.607   -31.727    -1.121     (0)  
H(0)          0.000e+00
   H2              0.000e+00   0.000e+00   -40.573   -40.572     0.001     (0)  
Na            1.000e-02
   Na+             1.000e-02   9.030e-03    -2.000    -2.044    -0.044     (0)  
O(0)          1.157e-11
   O2              5.787e-12   5.801e-12   -11.238   -11.237     0.001     (0)  

------------------------------Saturation indices-------------------------------

  Phase               SI** log IAP   log K(298 K,   1 atm)

  Fe(OH)2.7Cl0.3    3.52      0.48   -3.04  Fe(OH)2.7Cl0.3
  Fe3(OH)8        -16.33      3.89   20.22  Fe3(OH)8
  Ferrihydrite      0.00      3.19    3.19  Fe(OH)3
  Goethite          2.69      3.19    0.50  FeOOH
  Halite           -5.67     -4.09    1.58  NaCl
  Hematite         10.39      6.38   -4.01  Fe2O3
  Lepidocrocite     1.82      3.19    1.37  FeOOH
  Maghemite        -0.00      6.38    6.39  Fe2O3
  Magnetite         0.16      3.89    3.74  Fe3O4
  O2(g)            -8.28     74.84   83.12  O2

**For a gas, SI = log10(fugacity). Fugacity = pressure * phi / 1 atm.
  For ideal gases, phi = 1.

Using solution 11.	
Using surface 11.	
Using pure phase assemblage 11.	

-------------------------------Phase assemblage--------------------------------

                                                      Moles in assemblage
Phase               SI  log IAP  log K(T, P)   Initial       Final       Delta

Ferrihydrite      0.00     3.19      3.19    8.000e-05   8.000e-05  -4.100e-10

------------------------------Surface composition------------------------------

Diffuse Double Layer Surface-Complexation Model

Hfo           
	  7.620e-07  Surface charge, eq
	  1.724e-02  sigma, C/m²
	  6.052e-02  psi, V
	 -2.356e+00  -F*psi/RT
	  9.482e-02  exp(-F*psi/RT)
	  5.330e+04  specific area, m²/mol Ferrihydrite
	  4.264e+00  m² for   8.000e-05 moles of Ferrihydrite


Hfo_s         
	  4.000e-07  moles	[0.005 mol/(mol Ferrihydrite)]
	                                   Mole                     Log
	Species               Moles    Fraction    Molality    Molality

	Hfo_sOH           3.056e-07       0.764   3.056e-07      -6.515
	Hfo_sOH2+         5.648e-08       0.141   5.648e-08      -7.248
	Hfo_sO-           3.789e-08       0.095   3.789e-08      -7.421

Hfo_w         
	  1.600e-05  moles	[0.2 mol/(mol Ferrihydrite)]
	                                   Mole                     Log
	Species               Moles    Fraction    Molality    Molality

	Hfo_wOH           1.223e-05       0.764   1.223e-05      -4.913
	Hfo_wOH2+         2.259e-06       0.141   2.259e-06      -5.646
	Hfo_wO-           1.516e-06       0.095   1.516e-06      -5.819

-----------------------------Solution composition------------------------------

	Elements           Molality       Moles

	Cl                1.000e-02   1.000e-02
	Fe                4.100e-10   4.100e-10
	Na                1.000e-02   1.000e-02

----------------------------Description of solution----------------------------

                                       pH  =   7.000      Charge balance
                                       pe  =  11.711      Adjusted to redox equilibrium
                        Activity of water  =   1.000
                 Ionic strength (mol/kgw)  =   1.000e-02
                       Mass of water (kg)  =   1.000e+00
                 Total alkalinity (eq/kg)  =   2.268e-09
                    Total carbon (mol/kg)  =   0.000e+00
                       Total CO2 (mol/kg)  =   0.000e+00
                         Temperature (°C)  =  25.00
                  Electrical balance (eq)  =  -1.862e-09
 Percent error, 100*(Cat-|An|)/(Cat+|An|)  =  -0.00
                               Iterations  =  10
                                  Total H  = 1.110124e+02
                                  Total O  = 5.550622e+01

----------------------------Distribution of species----------------------------

                                               Log       Log       Log    mole V
   Species          Molality    Activity  Molality  Activity     Gamma   cm³/mol

   OH-             1.116e-07   1.005e-07    -6.952    -6.998    -0.046     (0)  
   H+              1.094e-07   9.994e-08    -6.961    -7.000    -0.039      0.00
   H2O             5.551e+01   9.997e-01     1.744    -0.000     0.000     18.07
Cl            1.000e-02
   Cl-             1.000e-02   8.989e-03    -2.000    -2.046    -0.046     (0)  
   FeCl+2          6.305e-19   4.211e-19   -18.200   -18.376    -0.175     (0)  
   FeCl2+          1.870e-20   1.691e-20   -19.728   -19.772    -0.044     (0)  
   FeCl3           1.517e-23   1.520e-23   -22.819   -22.818     0.001     (0)  
Fe(2)         4.824e-17
   Fe+2            4.813e-17   3.251e-17   -16.318   -16.488    -0.170     (0)  
   FeOH+           1.137e-19   1.028e-19   -18.944   -18.988    -0.044     (0)  
   Fe(OH)2         8.734e-24   8.754e-24   -23.059   -23.058     0.001     (0)  
   Fe(OH)3-        3.598e-27   3.253e-27   -26.444   -26.488    -0.044     (0)  
Fe(3)         4.100e-10
   Fe(OH)2+        3.666e-10   3.318e-10    -9.436    -9.479    -0.043     (0)  
   Fe(OH)3         3.890e-11   3.899e-11   -10.410   -10.409     0.001     (0)  
   Fe(OH)4-        4.309e-12   3.900e-12   -11.366   -11.409    -0.043     (0)  
   FeOH+2          1.500e-13   1.002e-13   -12.824   -12.999    -0.175     (0)  
   Fe+3            3.507e-18   1.551e-18   -17.455   -17.809    -0.354     (0)  
   FeCl+2          6.305e-19   4.211e-19   -18.200   -18.376    -0.175     (0)  
   FeCl2+          1.870e-20   1.691e-20   -19.728   -19.772    -0.044     (0)  
   FeCl3           1.517e-23   1.520e-23   -22.819   -22.818     0.001     (0)  
   Fe2(OH)2+4      1.409e-24   2.702e-25   -23.851   -24.568    -0.717     (0)  
   Fe3(OH)4+5      2.474e-31   1.873e-32   -30.607   -31.727    -1.121     (0)  
H(0)          0.000e+00
   H2              0.000e+00   0.000e+00   -40.573   -40.572     0.001     (0)  
Na            1.000e-02
   Na+             1.000e-02   9.030e-03    -2.000    -2.044    -0.044     (0)  
O(0)          1.157e-11
   O2              5.787e-12   5.801e-12   -11.238   -11.237     0.001     (0)  

------------------------------Saturation indices-------------------------------

  Phase               SI** log IAP   log K(298 K,   1 atm)

  Fe(OH)2.7Cl0.3    3.52      0.48   -3.04  Fe(OH)2.7Cl0.3
  Fe3(OH)8        -16.33      3.89   20.22  Fe3(OH)8
  Ferrihydrite      0.00      3.19    3.19  Fe(OH)3
  Goethite          2.69      3.19    0.50  FeOOH
  Halite           -5.67     -4.09    1.58  NaCl
  Hematite         10.39      6.38   -4.01  Fe2O3
  Lepidocrocite     1.82      3.19    1.37  FeOOH
  Maghemite        -0.00      6.38    6.39  Fe2O3
  Magnetite         0.16      3.89    3.74  Fe3O4
  O2(g)            -8.28     74.84   83.12  O2

**For a gas, SI = log10(fugacity). Fugacity = pressure * phi / 1 atm.
  For ideal gases, phi = 1.

Using solution 12.	
Using surface 12.	
Using pure phase assemblage 12.	

-------------------------------Phase assemblage--------------------------------

                                                      Moles in assemblage
Phase               SI  log IAP  log K(T, P)   Initial       Final       Delta

Ferrihydrite      0.00     3.19      3.19    8.000e-05   8.000e-05  -4.100e-10

------------------------------Surface composition------------------------------

Diffuse Double Layer Surface-Complexation Model

Hfo           
	  7.620e-07  Surface charge, eq
	  1.724e-02  sigma, C/m²
	  6.052e-02  psi, V
	 -2.356e+00  -F*psi/RT
	  9.482e-02  exp(-F*psi/RT)
	  5.330e+04  specific area, m²/mol Ferrihydrite
	  4.264e+00  m² for   8.000e-05 moles of Ferrihydrite


Hfo_s         
	  4.000e-07  moles	[0.005 mol/(mol Ferrihydrite)]
	                                   Mole                     Log
	Species               Moles    Fraction    Molality    Molality

	Hfo_sOH           3.056e-07       0.764   3.056e-07      -6.515
	Hfo_sOH2+         5.648e-08       0.141   5.648e-08      -7.248
	Hfo_sO-           3.789e-08       0.095   3.789e-08      -7.421

Hfo_w         
	  1.600e-05  moles	[0.2 mol/(mol Ferrihydrite)]
	                                   Mole                     Log
	Species               Moles    Fraction    Molality    Molality

	Hfo_wOH           1.223e-05       0.764   1.223e-05      -4.913
	Hfo_wOH2+         2.259e-06       0.141   2.259e-06      -5.646
	Hfo_wO-           1.516e-06       0.095   1.516e-06      -5.819

-----------------------------Solution composition------------------------------

	Elements           Molality       Moles

	Cl                1.000e-02   1.000e-02
	Fe                4.100e-10   4.100e-10
	Na                1.000e-02   1.000e-02

----------------------------Description of solution----------------------------

                                       pH  =   7.000      Charge balance
                                       pe  =  11.711      Adjusted to redox equilibrium
                        Activity of water  =   1.000
                 Ionic strength (mol/kgw)  =   1.000e-02
                       Mass of water (kg)  =   1.000e+00
                 Total alkalinity (eq/kg)  =   2.268e-09
                    Total carbon (mol/kg)  =   0.000e+00
                       Total CO2 (mol/kg)  =   0.000e+00
                         Temperature (°C)  =  25.00
                  Electrical balance (eq)  =  -1.862e-09
 Percent error, 100*(Cat-|An|)/(Cat+|An|)  =  -0.00
                               Iterations  =  10
                                  Total H  = 1.110124e+02
                                  Total O  = 5.550622e+01

----------------------------Distribution of species----------------------------

                                               Log       Log       Log    mole V
   Species          Molality    Activity  Molality  Activity     Gamma   cm³/mol

   OH-             1.116e-07   1.005e-07    -6.952    -6.998    -0.046     (0)  
   H+              1.094e-07   9.994e-08    -6.961    -7.000    -0.039      0.00
   H2O             5.551e+01   9.997e-01     1.744    -0.000     0.000     18.07
Cl            1.000e-02
[...]

------------------------------Saturation indices-------------------------------

  Phase               SI** log IAP   log K(298 K,   1 atm)

  Fe(OH)2.7Cl0.3    3.52      0.48   -3.04  Fe(OH)2.7Cl0.3
  Fe3(OH)8        -16.33      3.89   20.22  Fe3(OH)8
  Ferrihydrite      0.00      3.19    3.19  Fe(OH)3
  Goethite          2.69      3.19    0.50  FeOOH
  Halite           -5.67     -4.09    1.58  NaCl
  Hematite         10.39      6.38   -4.01  Fe2O3
  Lepidocrocite     1.82      3.19    1.37  FeOOH
  Maghemite        -0.00      6.38    6.39  Fe2O3
  Magnetite         0.16      3.89    3.74  Fe3O4
  O2(g)            -8.28     74.84   83.12  O2

**For a gas, SI = log10(fugacity). Fugacity = pressure * phi / 1 atm.
  For ideal gases, phi = 1.

Using mix 48.	
Using surface 48.	
Using pure phase assemblage 48.	Pure-phase assemblage after simulation 4.

Mixture 48.	

	  1.001e-01 Solution 47	Solution after simulation 4.                           
	  7.998e-01 Solution 48	Solution after simulation 4.                           
	  1.001e-01 Solution 49	Solution after simulation 4.                           

-------------------------------Phase assemblage--------------------------------

                                                      Moles in assemblage
Phase               SI  log IAP  log K(T, P)   Initial       Final       Delta

Ferrihydrite     -0.00     3.19      3.19    8.000e-05   8.000e-05   0.000e+00

------------------------------Surface composition------------------------------

Diffuse Double Layer Surface-Complexation Model

Hfo           
	  7.620e-07  Surface charge, eq
	  1.724e-02  sigma, C/m²
	  6.052e-02  psi, V
	 -2.356e+00  -F*psi/RT
	  9.482e-02  exp(-F*psi/RT)
	  5.330e+04  specific area, m²/mol Ferrihydrite
	  4.264e+00  m² for   8.000e-05 moles of Ferrihydrite


Hfo_s         
	  4.000e-07  moles	[0.005 mol/(mol Ferrihydrite)]
	                                   Mole                     Log
	Species               Moles    Fraction    Molality    Molality

	Hfo_sOH           3.056e-07       0.764   3.056e-07      -6.515
	Hfo_sOH2+         5.648e-08       0.141   5.648e-08      -7.248
	Hfo_sO-           3.789e-08       0.095   3.789e-08      -7.421

Hfo_w         
	  1.600e-05  moles	[0.2 mol/(mol Ferrihydrite)]
	                                   Mole                     Log
	Species               Moles    Fraction    Molality    Molality

	Hfo_wOH           1.223e-05       0.764   1.223e-05      -4.913
	Hfo_wOH2+         2.259e-06       0.141   2.259e-06      -5.646
	Hfo_wO-           1.516e-06       0.095   1.516e-06      -5.819

-----------------------------Solution composition------------------------------

	Elements           Molality       Moles

	Cl                1.000e-02   1.000e-02
	Fe                4.100e-10   4.100e-10
	Na                1.000e-02   1.000e-02

----------------------------Description of solution----------------------------

                                       pH  =   7.000      Charge balance
                                       pe  =  11.711      Adjusted to redox equilibrium
                        Activity of water  =   1.000
                 Ionic strength (mol/kgw)  =   1.000e-02
                       Mass of water (kg)  =   1.000e+00
                 Total alkalinity (eq/kg)  =   2.268e-09
                    Total carbon (mol/kg)  =   0.000e+00
                       Total CO2 (mol/kg)  =   0.000e+00
                         Temperature (°C)  =  25.00
                  Electrical balance (eq)  =  -1.862e-09
 Percent error, 100*(Cat-|An|)/(Cat+|An|)  =  -0.00
                               Iterations  =   1
                                  Total H  = 1.110124e+02
                                  Total O  = 5.550622e+01

----------------------------Distribution of species----------------------------

                                               Log       Log       Log    mole V
   Species          Molality    Activity  Molality  Activity     Gamma   cm³/mol

   OH-             1.116e-07   1.005e-07    -6.952    -6.998    -0.046     (0)  
   H+              1.094e-07   9.994e-08    -6.961    -7.000    -0.039      0.00
   H2O             5.551e+01   9.997e-01     1.744    -0.000     0.000     18.07
Cl            1.000e-02
   Cl-             1.000e-02   8.989e-03    -2.000    -2.046    -0.046     (0)  
   FeCl+2          6.305e-19   4.211e-19   -18.200   -18.376    -0.175     (0)  
   FeCl2+          1.870e-20   1.691e-20   -19.728   -19.772    -0.044     (0)  
   FeCl3           1.517e-23   1.520e-23   -22.819   -22.818     0.001     (0)  
Fe(2)         4.823e-17
   Fe+2            4.812e-17   3.250e-17   -16.318   -16.488    -0.170     (0)  
   FeOH+           1.137e-19   1.028e-19   -18.944   -18.988    -0.044     (0)  
   Fe(OH)2         8.731e-24   8.751e-24   -23.059   -23.058     0.001     (0)  
   Fe(OH)3-        3.597e-27   3.252e-27   -26.444   -26.488    -0.044     (0)  
Fe(3)         4.100e-10
   Fe(OH)2+        3.666e-10   3.318e-10    -9.436    -9.479    -0.043     (0)  
   Fe(OH)3         3.890e-11   3.899e-11   -10.410   -10.409     0.001     (0)  
   Fe(OH)4-        4.309e-12   3.900e-12   -11.366   -11.409    -0.043     (0)  
   FeOH+2          1.500e-13   1.002e-13   -12.824   -12.999    -0.175     (0)  
   Fe+3            3.507e-18   1.551e-18   -17.455   -17.809    -0.354     (0)  
   FeCl+2          6.305e-19   4.211e-19   -18.200   -18.376    -0.175     (0)  
   FeCl2+          1.870e-20   1.691e-20   -19.728   -19.772    -0.044     (0)  
   FeCl3           1.517e-23   1.520e-23   -22.819   -22.818     0.001     (0)  
   Fe2(OH)2+4      1.409e-24   2.702e-25   -23.851   -24.568    -0.717     (0)  
   Fe3(OH)4+5      2.474e-31   1.873e-32   -30.607   -31.727    -1.121     (0)  
H(0)          0.000e+00
   H2              0.000e+00   0.000e+00   -40.573   -40.572     0.001     (0)  
Na            1.000e-02
   Na+             1.000e-02   9.030e-03    -2.000    -2.044    -0.044     (0)  
O(0)          1.159e-11
   O2              5.794e-12   5.807e-12   -11.237   -11.236     0.001     (0)  

------------------------------Saturation indices-------------------------------

  Phase               SI** log IAP   log K(298 K,   1 atm)

  Fe(OH)2.7Cl0.3    3.52      0.48   -3.04  Fe(OH)2.7Cl0.3
  Fe3(OH)8        -16.33      3.89   20.22  Fe3(OH)8
  Ferrihydrite     -0.00      3.19    3.19  Fe(OH)3
  Goethite          2.69      3.19    0.50  FeOOH
  Halite           -5.67     -4.09    1.58  NaCl
  Hematite         10.39      6.38   -4.01  Fe2O3
  Lepidocrocite     1.82      3.19    1.37  FeOOH
  Maghemite        -0.00      6.38    6.39  Fe2O3
  Magnetite         0.16      3.89    3.74  Fe3O4
  O2(g)            -8.28     74.84   83.12  O2

**For a gas, SI = log10(fugacity). Fugacity = pressure * phi / 1 atm.
  For ideal gases, phi = 1.

Using mix 49.	
Using surface 49.	
Using pure phase assemblage 49.	Pure-phase assemblage after simulation 4.

Mixture 49.	

	  1.001e-01 Solution 48	Solution after simulation 4.                           
	  7.998e-01 Solution 49	Solution after simulation 4.                           
	  1.001e-01 Solution 50	Solution after simulation 4.                           

-------------------------------Phase assemblage--------------------------------

                                                      Moles in assemblage
Phase               SI  log IAP  log K(T, P)   Initial       Final       Delta

Ferrihydrite      0.00     3.19      3.19    8.000e-05   8.000e-05   0.000e+00

------------------------------Surface composition------------------------------

Diffuse Double Layer Surface-Complexation Model

Hfo           
	  7.620e-07  Surface charge, eq
	  1.724e-02  sigma, C/m²
	  6.052e-02  psi, V
	 -2.356e+00  -F*psi/RT
	  9.482e-02  exp(-F*psi/RT)
	  5.330e+04  specific area, m²/mol Ferrihydrite
	  4.264e+00  m² for   8.000e-05 moles of Ferrihydrite


Hfo_s         
	  4.000e-07  moles	[0.005 mol/(mol Ferrihydrite)]
	                                   Mole                     Log
	Species               Moles    Fraction    Molality    Molality

	Hfo_sOH           3.056e-07       0.764   3.056e-07      -6.515
	Hfo_sOH2+         5.648e-08       0.141   5.648e-08      -7.248
	Hfo_sO-           3.789e-08       0.095   3.789e-08      -7.421

Hfo_w         
	  1.600e-05  moles	[0.2 mol/(mol Ferrihydrite)]
	                                   Mole                     Log
	Species               Moles    Fraction    Molality    Molality

	Hfo_wOH           1.223e-05       0.764   1.223e-05      -4.913
	Hfo_wOH2+         2.259e-06       0.141   2.259e-06      -5.646
	Hfo_wO-           1.516e-06       0.095   1.516e-06      -5.819

-----------------------------Solution composition------------------------------

	Elements           Molality       Moles

	Cl                1.000e-02   1.000e-02
	Fe                4.100e-10   4.100e-10
	Na                1.000e-02   1.000e-02

----------------------------Description of solution----------------------------

                                       pH  =   7.000      Charge balance
                                       pe  =  11.711      Adjusted to redox equilibrium
                        Activity of water  =   1.000
                 Ionic strength (mol/kgw)  =   1.000e-02
                       Mass of water (kg)  =   1.000e+00
                 Total alkalinity (eq/kg)  =   2.268e-09
                    Total carbon (mol/kg)  =   0.000e+00
                       Total CO2 (mol/kg)  =   0.000e+00
                         Temperature (°C)  =  25.00
                  Electrical balance (eq)  =  -1.862e-09
 Percent error, 100*(Cat-|An|)/(Cat+|An|)  =  -0.00
                               Iterations  =   1
                                  Total H  = 1.110124e+02
                                  Total O  = 5.550622e+01

----------------------------Distribution of species----------------------------

                                               Log       Log       Log    mole V
   Species          Molality    Activity  Molality  Activity     Gamma   cm³/mol

   OH-             1.116e-07   1.005e-07    -6.952    -6.998    -0.046     (0)  
   H+              1.094e-07   9.994e-08    -6.961    -7.000    -0.039      0.00
   H2O             5.551e+01   9.997e-01     1.744    -0.000     0.000     18.07
Cl            1.000e-02
   Cl-             1.000e-02   8.989e-03    -2.000    -2.046    -0.046     (0)  
   FeCl+2          6.305e-19   4.211e-19   -18.200   -18.376    -0.175     (0)  
   FeCl2+          1.870e-20   1.691e-20   -19.728   -19.772    -0.044     (0)  
   FeCl3           1.517e-23   1.520e-23   -22.819   -22.818     0.001     (0)  
Fe(2)         4.823e-17
   Fe+2            4.812e-17   3.250e-17   -16.318   -16.488    -0.170     (0)  
   FeOH+           1.137e-19   1.028e-19   -18.944   -18.988    -0.044     (0)  
   Fe(OH)2         8.731e-24   8.751e-24   -23.059   -23.058     0.001     (0)  
   Fe(OH)3-        3.597e-27   3.252e-27   -26.444   -26.488    -0.044     (0)  
Fe(3)         4.100e-10
   Fe(OH)2+        3.666e-10   3.318e-10    -9.436    -9.479    -0.043     (0)  
   Fe(OH)3         3.890e-11   3.899e-11   -10.410   -10.409     0.001     (0)  
   Fe(OH)4-        4.309e-12   3.900e-12   -11.366   -11.409    -0.043     (0)  
   FeOH+2          1.500e-13   1.002e-13   -12.824   -12.999    -0.175     (0)  
   Fe+3            3.507e-18   1.551e-18   -17.455   -17.809    -0.354     (0)  
   FeCl+2          6.305e-19   4.211e-19   -18.200   -18.376    -0.175     (0)  
   FeCl2+          1.870e-20   1.691e-20   -19.728   -19.772    -0.044     (0)  
   FeCl3           1.517e-23   1.520e-23   -22.819   -22.818     0.001     (0)  
   Fe2(OH)2+4      1.409e-24   2.702e-25   -23.851   -24.568    -0.717     (0)  
   Fe3(OH)4+5      2.474e-31   1.873e-32   -30.607   -31.727    -1.121     (0)  
H(0)          0.000e+00
   H2              0.000e+00   0.000e+00   -40.573   -40.572     0.001     (0)  
Na            1.000e-02
   Na+             1.000e-02   9.030e-03    -2.000    -2.044    -0.044     (0)  
O(0)          1.159e-11
   O2              5.794e-12   5.807e-12   -11.237   -11.236     0.001     (0)  

------------------------------Saturation indices-------------------------------

  Phase               SI** log IAP   log K(298 K,   1 atm)

  Fe(OH)2.7Cl0.3    3.52      0.48   -3.04  Fe(OH)2.7Cl0.3
  Fe3(OH)8        -16.33      3.89   20.22  Fe3(OH)8
  Ferrihydrite      0.00      3.19    3.19  Fe(OH)3
  Goethite          2.69      3.19    0.50  FeOOH
  Halite           -5.67     -4.09    1.58  NaCl
  Hematite         10.39      6.38   -4.01  Fe2O3
  Lepidocrocite     1.82      3.19    1.37  FeOOH
  Maghemite        -0.00      6.38    6.39  Fe2O3
  Magnetite         0.16      3.89    3.74  Fe3O4
  O2(g)            -8.28     74.84   83.12  O2

**For a gas, SI = log10(fugacity). Fugacity = pressure * phi / 1 atm.
  For ideal gases, phi = 1.

Using mix 50.	
Using surface 50.	
Using pure phase assemblage 50.	Pure-phase assemblage after simulation 4.

Mixture 50.	

	  1.001e-01 Solution 49	Solution after simulation 4.                           
	  8.999e-01 Solution 50	Solution after simulation 4.                           
	  0.000e+00 Solution 51	Solution after simulation 4.                           

-------------------------------Phase assemblage--------------------------------

                                                      Moles in assemblage
Phase               SI  log IAP  log K(T, P)   Initial       Final       Delta

Ferrihydrite     -0.00     3.19      3.19    8.000e-05   8.000e-05   0.000e+00

------------------------------Surface composition------------------------------

Diffuse Double Layer Surface-Complexation Model

Hfo           
	  7.620e-07  Surface charge, eq
	  1.724e-02  sigma, C/m²
	  6.052e-02  psi, V
	 -2.356e+00  -F*psi/RT
	  9.482e-02  exp(-F*psi/RT)
	  5.330e+04  specific area, m²/mol Ferrihydrite
	  4.264e+00  m² for   8.000e-05 moles of Ferrihydrite


Hfo_s         
	  4.000e-07  moles	[0.005 mol/(mol Ferrihydrite)]
	                                   Mole                     Log
	Species               Moles    Fraction    Molality    Molality

	Hfo_sOH           3.056e-07       0.764   3.056e-07      -6.515
	Hfo_sOH2+         5.648e-08       0.141   5.648e-08      -7.248
	Hfo_sO-           3.789e-08       0.095   3.789e-08      -7.421

Hfo_w         
	  1.600e-05  moles	[0.2 mol/(mol Ferrihydrite)]
	                                   Mole                     Log
	Species               Moles    Fraction    Molality    Molality

	Hfo_wOH           1.223e-05       0.764   1.223e-05      -4.913
	Hfo_wOH2+         2.259e-06       0.141   2.259e-06      -5.646
	Hfo_wO-           1.516e-06       0.095   1.516e-06      -5.819

-----------------------------Solution composition------------------------------

	Elements           Molality       Moles

	Cl                1.000e-02   1.000e-02
	Fe                4.100e-10   4.100e-10
	Na                1.000e-02   1.000e-02

----------------------------Description of solution----------------------------

                                       pH  =   7.000      Charge balance
                                       pe  =  11.711      Adjusted to redox equilibrium
                        Activity of water  =   1.000
                 Ionic strength (mol/kgw)  =   1.000e-02
                       Mass of water (kg)  =   1.000e+00
                 Total alkalinity (eq/kg)  =   2.268e-09
                    Total carbon (mol/kg)  =   0.000e+00
                       Total CO2 (mol/kg)  =   0.000e+00
                         Temperature (°C)  =  25.00
                  Electrical balance (eq)  =  -1.862e-09
 Percent error, 100*(Cat-|An|)/(Cat+|An|)  =  -0.00
                               Iterations  =   1
                                  Total H  = 1.110124e+02
                                  Total O  = 5.550622e+01

----------------------------Distribution of species----------------------------

                                               Log       Log       Log    mole V
   Species          Molality    Activity  Molality  Activity     Gamma   cm³/mol

   OH-             1.116e-07   1.005e-07    -6.952    -6.998    -0.046     (0)  
   H+              1.094e-07   9.994e-08    -6.961    -7.000    -0.039      0.00
   H2O             5.551e+01   9.997e-01     1.744    -0.000     0.000     18.07
Cl            1.000e-02
   Cl-             1.000e-02   8.989e-03    -2.000    -2.046    -0.046     (0)  
   FeCl+2          6.305e-19   4.211e-19   -18.200   -18.376    -0.175     (0)  
   FeCl2+          1.870e-20   1.691e-20   -19.728   -19.772    -0.044     (0)  
   FeCl3           1.517e-23   1.520e-23   -22.819   -22.818     0.001     (0)  
Fe(2)         4.823e-17
   Fe+2            4.812e-17   3.250e-17   -16.318   -16.488    -0.170     (0)  
   FeOH+           1.137e-19   1.028e-19   -18.944   -18.988    -0.044     (0)  
   Fe(OH)2         8.731e-24   8.751e-24   -23.059   -23.058     0.001     (0)  
   Fe(OH)3-        3.597e-27   3.252e-27   -26.444   -26.488    -0.044     (0)  
Fe(3)         4.100e-10
   Fe(OH)2+        3.666e-10   3.318e-10    -9.436    -9.479    -0.043     (0)  
   Fe(OH)3         3.890e-11   3.899e-11   -10.410   -10.409     0.001     (0)  
   Fe(OH)4-        4.309e-12   3.900e-12   -11.366   -11.409    -0.043     (0)  
   FeOH+2          1.500e-13   1.002e-13   -12.824   -12.999    -0.175     (0)  
   Fe+3            3.507e-18   1.551e-18   -17.455   -17.809    -0.354     (0)  
   FeCl+2          6.305e-19   4.211e-19   -18.200   -18.376    -0.175     (0)  
   FeCl2+          1.870e-20   1.691e-20   -19.728   -19.772    -0.044     (0)  
   FeCl3           1.517e-23   1.520e-23   -22.819   -22.818     0.001     (0)  
   Fe2(OH)2+4      1.409e-24   2.702e-25   -23.851   -24.568    -0.717     (0)  
   Fe3(OH)4+5      2.474e-31   1.873e-32   -30.607   -31.727    -1.121     (0)  
H(0)          0.000e+00
   H2              0.000e+00   0.000e+00   -40.573   -40.572     0.001     (0)  
Na            1.000e-02
   Na+             1.000e-02   9.030e-03    -2.000    -2.044    -0.044     (0)  
O(0)          1.159e-11
   O2              5.794e-12   5.807e-12   -11.237   -11.236     0.001     (0)  

------------------------------Saturation indices-------------------------------

  Phase               SI** log IAP   log K(298 K,   1 atm)

  Fe(OH)2.7Cl0.3    3.52      0.48   -3.04  Fe(OH)2.7Cl0.3
  Fe3(OH)8        -16.33      3.89   20.22  Fe3(OH)8
  Ferrihydrite     -0.00      3.19    3.19  Fe(OH)3
  Goethite          2.69      3.19    0.50  FeOOH
  Halite           -5.67     -4.09    1.58  NaCl
  Hematite         10.39      6.38   -4.01  Fe2O3
  Lepidocrocite     1.82      3.19    1.37  FeOOH
  Maghemite        -0.00      6.38    6.39  Fe2O3
  Magnetite         0.16      3.89    3.74  Fe3O4
  O2(g)            -8.28     74.84   83.12  O2

**For a gas, SI = log10(fugacity). Fugacity = pressure * phi / 1 atm.
  For ideal gases, phi = 1.

------------------
End of simulation.
------------------

------------------------------------
Reading input data for simulation 5.
------------------------------------

	DUMP	
		-file no_negative_dump.dmp
		-append false
		-all
	END
------------------
End of simulation.
------------------

------------------------------------
Reading input data for simulation 6.
------------------------------------

	DUMP
		-append
		-solution -1 -2 0 1
		-surface -1 -2 0 1
		-equilibrium_phases -1 -2 0 1
		-kinetics -1 -2 0 1
		-exchange -1 -2 0 1
		-gas_phase -1 -2 0 1
		-solid_solution -1 -2 0 1
		-reaction -1 -2 0 1
		-reaction_temperature -1 -2 0 1
		-reaction_pressure -1 -2 0 1
		-mix -1 -2 0 1
	END
------------------
End of simulation.
------------------

------------------------------------
Reading input data for simulation 7.
------------------------------------

------------------------------
End of Run after 0.34 Seconds.
------------------------------

