   Input file: np.testmp
  Output file: np.testmp.out
Database file: ../database/phreeqc.dat

------------------
Reading data base.
------------------

	SOLUTION_MASTER_SPECIES
	SOLUTION_SPECIES
	PHASES
	EXCHANGE_MASTER_SPECIES
	EXCHANGE_SPECIES
	SURFACE_MASTER_SPECIES
	SURFACE_SPECIES
	RATES
	END
------------------------------------
Reading input data for simulation 1.
------------------------------------

	DATABASE ../database/phreeqc.dat
	knobs
		logfile
	PRINT
		status false
	SOLUTION 1
		units 	mmol/l
		pH 	6.2
		Si	0.273
		Ca	0.078
		Mg	0.029
		Na	0.134
		K	0.028
		Alkalinity	0.328
		S(6)	0.010
		Cl	0.014
	SOLUTION 2
		units 	mmol/l
		pH	6.8
		Si	0.41
		Ca	0.26
		Mg	0.071
		Na	0.259
		K	0.04
		Alkalinity	0.895
		S(6)		0.025
		Cl		0.03
	INVERSE_MODELING 1
		solutions 1 2
		uncertainty 0.05
		phases
			Halite
			Gypsum
			Kaolinite   	pre
			Ca-montmorillonite   pre
			CO2(g)
			Calcite
			Chalcedony	pre
			Biotite    	dis
			Plagioclase     dis
		multiple_precision
	PHASES
		Halite
		NaCl = Na+ + Cl-
		log_k	0.0
		Biotite
		KMg3AlSi3O10(OH)2 + 6H+ + 4H2O = K+ + 3Mg+2 + Al(OH)4- + 3H4SiO4 
		log_k	0.0
		Plagioclase
		Na0.62Ca0.37Al1.38Si2.625O8 + 5.5 H+ + 2.5H2O = 0.62Na+ + 0.37Ca+2 + 1.38Al+3 + 2.625H4SiO4
		log_k	0.0
		H2O(g)
		H2O = H2O
		log_k	0.0
		NaX
		NaX = Na+ + X- 
		log_k	0.0
		CaX2
		CaX2 = Ca+2 + 2X- 
		log_k	0.0
	END
-------------------------------------------
Beginning of initial solution calculations.
-------------------------------------------

Initial solution 1.	

-----------------------------Solution composition------------------------------

	Elements           Molality       Moles

	Alkalinity        3.280e-04   3.280e-04
	Ca                7.800e-05   7.800e-05
	Cl                1.400e-05   1.400e-05
	K                 2.800e-05   2.800e-05
	Mg                2.900e-05   2.900e-05
	Na                1.340e-04   1.340e-04
	S(6)              1.000e-05   1.000e-05
	Si                2.730e-04   2.730e-04

----------------------------Description of solution----------------------------

                                       pH  =   6.200    
                                       pe  =   4.000    
       Specific Conductance (uS/cm, 25 oC) = 37
                          Density (g/cm3)  =   0.99708
                        Activity of water  =   1.000
                           Ionic strength  =   4.852e-04
                       Mass of water (kg)  =   1.000e+00
                    Total carbon (mol/kg)  =   7.825e-04
                       Total CO2 (mol/kg)  =   7.825e-04
                      Temperature (deg C)  =  25.00
                  Electrical balance (eq)  =   1.400e-05
 Percent error, 100*(Cat-|An|)/(Cat+|An|)  =   1.90
                               Iterations  =   7
                                  Total H  = 1.110139e+02
                                  Total O  = 5.550924e+01

----------------------------Distribution of species----------------------------

                                               Log       Log       Log    mole V
   Species          Molality    Activity  Molality  Activity     Gamma   cm3/mol

   H+              6.465e-07   6.310e-07    -6.189    -6.200    -0.011      0.00
   OH-             1.629e-08   1.588e-08    -7.788    -7.799    -0.011     -4.09
   H2O             5.551e+01   1.000e+00     1.744    -0.000     0.000     18.07
C(4)          7.825e-04
   CO2             4.539e-04   4.540e-04    -3.343    -3.343     0.000     30.26
   HCO3-           3.281e-04   3.200e-04    -3.484    -3.495    -0.011     24.58
   CaHCO3+         2.940e-07   2.868e-07    -6.532    -6.542    -0.011      9.66
   MgHCO3+         1.003e-07   9.780e-08    -6.999    -7.010    -0.011      5.47
   NaHCO3          4.180e-08   4.181e-08    -7.379    -7.379     0.000     29.13
   CO3-2           2.628e-08   2.379e-08    -7.580    -7.624    -0.043     -4.02
   CaCO3           2.806e-09   2.806e-09    -8.552    -8.552     0.000    -14.60
   MgCO3           5.928e-10   5.928e-10    -9.227    -9.227     0.000    -17.09
   NaCO3-          5.934e-11   5.786e-11   -10.227   -10.238    -0.011     -2.88
Ca            7.800e-05
   Ca+2            7.760e-05   7.023e-05    -4.110    -4.153    -0.043    -18.26
   CaHCO3+         2.940e-07   2.868e-07    -6.532    -6.542    -0.011      9.66
   CaSO4           1.110e-07   1.111e-07    -6.954    -6.954     0.000      7.50
   CaCO3           2.806e-09   2.806e-09    -8.552    -8.552     0.000    -14.60
   CaOH+           1.894e-11   1.847e-11   -10.723   -10.733    -0.011     (0)  
   CaHSO4+         4.723e-13   4.606e-13   -12.326   -12.337    -0.011     (0)  
Cl            1.400e-05
   Cl-             1.400e-05   1.365e-05    -4.854    -4.865    -0.011     18.05
H(0)          5.636e-24
   H2              2.818e-24   2.818e-24   -23.550   -23.550     0.000     28.61
K             2.800e-05
   K+              2.800e-05   2.730e-05    -4.553    -4.564    -0.011      8.92
   KSO4-           1.749e-09   1.706e-09    -8.757    -8.768    -0.011     (0)  
   KOH             1.500e-13   1.500e-13   -12.824   -12.824     0.000     (0)  
Mg            2.900e-05
   Mg+2            2.885e-05   2.612e-05    -4.540    -4.583    -0.043    -21.55
   MgHCO3+         1.003e-07   9.780e-08    -6.999    -7.010    -0.011      5.47
   MgSO4           5.444e-08   5.445e-08    -7.264    -7.264     0.000      5.84
   MgCO3           5.928e-10   5.928e-10    -9.227    -9.227     0.000    -17.09
   MgOH+           1.541e-10   1.503e-10    -9.812    -9.823    -0.011     (0)  
Na            1.340e-04
   Na+             1.340e-04   1.306e-04    -3.873    -3.884    -0.011     -1.21
   NaHCO3          4.180e-08   4.181e-08    -7.379    -7.379     0.000     29.13
   NaSO4-          5.971e-09   5.822e-09    -8.224    -8.235    -0.011     16.66
   NaCO3-          5.934e-11   5.786e-11   -10.227   -10.238    -0.011     -2.88
   NaOH            2.075e-22   2.075e-22   -21.683   -21.683     0.000     (0)  
O(0)          0.000e+00
   O2              0.000e+00   0.000e+00   -45.280   -45.280     0.000     30.40
S(6)          1.000e-05
   SO4-2           9.827e-06   8.892e-06    -5.008    -5.051    -0.043     14.85
   CaSO4           1.110e-07   1.111e-07    -6.954    -6.954     0.000      7.50
   MgSO4           5.444e-08   5.445e-08    -7.264    -7.264     0.000      5.84
   NaSO4-          5.971e-09   5.822e-09    -8.224    -8.235    -0.011     16.66
   KSO4-           1.749e-09   1.706e-09    -8.757    -8.768    -0.011     (0)  
   HSO4-           5.594e-10   5.455e-10    -9.252    -9.263    -0.011     35.16
   CaHSO4+         4.723e-13   4.606e-13   -12.326   -12.337    -0.011     (0)  
Si            2.730e-04
   H4SiO4          2.729e-04   2.730e-04    -3.564    -3.564     0.000     52.08
   H3SiO4-         6.542e-08   6.379e-08    -7.184    -7.195    -0.011     27.96
   H2SiO4-2        7.605e-15   6.877e-15   -14.119   -14.163    -0.044     (0)  

------------------------------Saturation indices-------------------------------

	Phase               SI   log IAP   log K(298 K,   1 atm)

	Anhydrite        -4.98     -9.20   -4.22  CaSO4
	Aragonite        -3.44    -11.78   -8.34  CaCO3
	Calcite          -3.30    -11.78   -8.48  CaCO3
	Chalcedony       -0.01     -3.56   -3.55  SiO2
	Chrysotile      -15.88     16.32   32.20  Mg3Si2O5(OH)4
	CO2(g)           -1.88     -3.34   -1.46  CO2
	Dolomite         -6.89    -23.98  -17.09  CaMg(CO3)2
	Gypsum           -4.62     -9.20   -4.58  CaSO4:2H2O
	H2(g)           -20.45    -23.55   -3.10  H2
	H2O(g)           -0.00     -0.00    0.00  H2O
	Halite           -8.75     -8.75    0.00  NaCl
	O2(g)           -42.39    -45.28   -2.89  O2
	Quartz            0.42     -3.56   -3.98  SiO2
	Sepiolite       -10.82      4.94   15.76  Mg2Si3O7.5OH:3H2O
	Sepiolite(d)    -13.72      4.94   18.66  Mg2Si3O7.5OH:3H2O
	SiO2(a)          -0.85     -3.56   -2.71  SiO2
	Talc            -12.20      9.20   21.40  Mg3Si4O10(OH)2


Initial solution 2.	

-----------------------------Solution composition------------------------------

	Elements           Molality       Moles

	Alkalinity        8.951e-04   8.951e-04
	Ca                2.600e-04   2.600e-04
	Cl                3.000e-05   3.000e-05
	K                 4.000e-05   4.000e-05
	Mg                7.101e-05   7.101e-05
	Na                2.590e-04   2.590e-04
	S(6)              2.500e-05   2.500e-05
	Si                4.100e-04   4.100e-04

----------------------------Description of solution----------------------------

                                       pH  =   6.800    
                                       pe  =   4.000    
       Specific Conductance (uS/cm, 25 oC) = 95
                          Density (g/cm3)  =   0.99713
                        Activity of water  =   1.000
                           Ionic strength  =   1.313e-03
                       Mass of water (kg)  =   1.000e+00
                    Total carbon (mol/kg)  =   1.199e-03
                       Total CO2 (mol/kg)  =   1.199e-03
                      Temperature (deg C)  =  25.00
                  Electrical balance (eq)  =  -1.400e-05
 Percent error, 100*(Cat-|An|)/(Cat+|An|)  =  -0.73
                               Iterations  =   7
                                  Total H  = 1.110150e+02
                                  Total O  = 5.551125e+01

----------------------------Distribution of species----------------------------

                                               Log       Log       Log    mole V
   Species          Molality    Activity  Molality  Activity     Gamma   cm3/mol

   H+              1.647e-07   1.585e-07    -6.783    -6.800    -0.017      0.00
   OH-             6.587e-08   6.323e-08    -7.181    -7.199    -0.018     -4.07
   H2O             5.551e+01   1.000e+00     1.744    -0.000     0.000     18.07
C(4)          1.199e-03
   HCO3-           8.907e-04   8.557e-04    -3.050    -3.068    -0.017     24.59
   CO2             3.049e-04   3.049e-04    -3.516    -3.516     0.000     30.26
   CaHCO3+         2.485e-06   2.387e-06    -5.605    -5.622    -0.017      9.68
   MgHCO3+         6.233e-07   5.985e-07    -6.205    -6.223    -0.018      5.48
   CO3-2           2.971e-07   2.532e-07    -6.527    -6.597    -0.069     -3.97
   NaHCO3          2.126e-07   2.127e-07    -6.672    -6.672     0.000     29.13
   CaCO3           9.299e-08   9.301e-08    -7.032    -7.031     0.000    -14.60
   MgCO3           1.444e-08   1.444e-08    -7.841    -7.840     0.000    -17.09
   NaCO3-          1.220e-09   1.172e-09    -8.913    -8.931    -0.018     -2.86
Ca            2.600e-04
   Ca+2            2.567e-04   2.187e-04    -3.591    -3.660    -0.070    -18.21
   CaHCO3+         2.485e-06   2.387e-06    -5.605    -5.622    -0.017      9.68
   CaSO4           7.909e-07   7.911e-07    -6.102    -6.102     0.000      7.50
   CaCO3           9.299e-08   9.301e-08    -7.032    -7.031     0.000    -14.60
   CaOH+           2.385e-10   2.290e-10    -9.623    -9.640    -0.018     (0)  
   CaHSO4+         8.583e-13   8.242e-13   -12.066   -12.084    -0.018     (0)  
Cl            3.000e-05
   Cl-             3.000e-05   2.880e-05    -4.523    -4.541    -0.018     18.07
H(0)          3.555e-25
   H2              1.778e-25   1.778e-25   -24.750   -24.750     0.000     28.61
K             4.000e-05
   K+              4.000e-05   3.840e-05    -4.398    -4.416    -0.018      8.93
   KSO4-           5.717e-09   5.489e-09    -8.243    -8.260    -0.018     (0)  
   KOH             8.398e-13   8.400e-13   -12.076   -12.076     0.000     (0)  
Mg            7.101e-05
   Mg+2            7.008e-05   5.977e-05    -4.154    -4.224    -0.069    -21.50
   MgHCO3+         6.233e-07   5.985e-07    -6.205    -6.223    -0.018      5.48
   MgSO4           2.850e-07   2.851e-07    -6.545    -6.545     0.000      5.84
   MgCO3           1.444e-08   1.444e-08    -7.841    -7.840     0.000    -17.09
   MgOH+           1.426e-09   1.369e-09    -8.846    -8.864    -0.018     (0)  
Na            2.590e-04
   Na+             2.588e-04   2.485e-04    -3.587    -3.605    -0.018     -1.19
   NaHCO3          2.126e-07   2.127e-07    -6.672    -6.672     0.000     29.13
   NaSO4-          2.639e-08   2.534e-08    -7.579    -7.596    -0.018     16.68
   NaCO3-          1.220e-09   1.172e-09    -8.913    -8.931    -0.018     -2.86
   NaOH            1.571e-21   1.572e-21   -20.804   -20.804     0.000     (0)  
O(0)          0.000e+00
   O2              0.000e+00   0.000e+00   -42.880   -42.880     0.000     30.40
S(6)          2.500e-05
   SO4-2           2.389e-05   2.034e-05    -4.622    -4.692    -0.070     14.91
   CaSO4           7.909e-07   7.911e-07    -6.102    -6.102     0.000      7.50
   MgSO4           2.850e-07   2.851e-07    -6.545    -6.545     0.000      5.84
   NaSO4-          2.639e-08   2.534e-08    -7.579    -7.596    -0.018     16.68
   KSO4-           5.717e-09   5.489e-09    -8.243    -8.260    -0.018     (0)  
   HSO4-           3.265e-10   3.135e-10    -9.486    -9.504    -0.018     35.17
   CaHSO4+         8.583e-13   8.242e-13   -12.066   -12.084    -0.018     (0)  
Si            4.100e-04
   H4SiO4          4.096e-04   4.098e-04    -3.388    -3.387     0.000     52.08
   H3SiO4-         3.970e-07   3.812e-07    -6.401    -6.419    -0.018     27.98
   H2SiO4-2        1.925e-13   1.636e-13   -12.716   -12.786    -0.071     (0)  

------------------------------Saturation indices-------------------------------

	Phase               SI   log IAP   log K(298 K,   1 atm)

	Anhydrite        -4.13     -8.35   -4.22  CaSO4
	Aragonite        -1.92    -10.26   -8.34  CaCO3
	Calcite          -1.78    -10.26   -8.48  CaCO3
	Chalcedony        0.16     -3.39   -3.55  SiO2
	Chrysotile      -10.85     21.35   32.20  Mg3Si2O5(OH)4
	CO2(g)           -2.06     -3.52   -1.46  CO2
	Dolomite         -3.99    -21.08  -17.09  CaMg(CO3)2
	Gypsum           -3.77     -8.35   -4.58  CaSO4:2H2O
	H2(g)           -21.65    -24.75   -3.10  H2
	H2O(g)           -0.00     -0.00    0.00  H2O
	Halite           -8.15     -8.15    0.00  NaCl
	O2(g)           -39.99    -42.88   -2.89  O2
	Quartz            0.59     -3.39   -3.98  SiO2
	Sepiolite        -7.17      8.59   15.76  Mg2Si3O7.5OH:3H2O
	Sepiolite(d)    -10.07      8.59   18.66  Mg2Si3O7.5OH:3H2O
	SiO2(a)          -0.68     -3.39   -2.71  SiO2
	Talc             -6.82     14.58   21.40  Mg3Si4O10(OH)2


---------------------------------------------
Beginning of inverse modeling 1 calculations.
---------------------------------------------

Using Cl1MP multiprecision optimization routine.

Solution 1: 

                         Input          Delta    Input+Delta
             pH      6.200e+00  +   3.173e-02  =   6.232e+00
             Al      0.000e+00  +   0.000e+00  =   0.000e+00
     Alkalinity      3.280e-04  +   1.400e-05  =   3.420e-04
          C(-4)      0.000e+00  +   0.000e+00  =   0.000e+00
           C(4)      7.825e-04  +   0.000e+00  =   7.825e-04
             Ca      7.800e-05  +   0.000e+00  =   7.800e-05
             Cl      1.400e-05  +   0.000e+00  =   1.400e-05
           H(0)      0.000e+00  +   0.000e+00  =   0.000e+00
              K      2.800e-05  +   0.000e+00  =   2.800e-05
             Mg      2.900e-05  +   0.000e+00  =   2.900e-05
             Na      1.340e-04  +   0.000e+00  =   1.340e-04
           O(0)      0.000e+00  +   0.000e+00  =   0.000e+00
          S(-2)      0.000e+00  +   0.000e+00  =   0.000e+00
           S(6)      1.000e-05  +   0.000e+00  =   1.000e-05
             Si      2.730e-04  +   0.000e+00  =   2.730e-04

Solution 2: 

                         Input          Delta    Input+Delta
             pH      6.800e+00  +   0.000e+00  =   6.800e+00
             Al      0.000e+00  +   0.000e+00  =   0.000e+00
     Alkalinity      8.951e-04  +   0.000e+00  =   8.951e-04
          C(-4)      0.000e+00  +   0.000e+00  =   0.000e+00
           C(4)      1.199e-03  +   0.000e+00  =   1.199e-03
             Ca      2.600e-04  +   6.001e-06  =   2.660e-04
             Cl      3.000e-05  +   0.000e+00  =   3.000e-05
           H(0)      0.000e+00  +   0.000e+00  =   0.000e+00
              K      4.000e-05  +   1.999e-06  =   4.200e-05
             Mg      7.101e-05  +   0.000e+00  =   7.101e-05
             Na      2.590e-04  +   0.000e+00  =   2.590e-04
           O(0)      0.000e+00  +   0.000e+00  =   0.000e+00
          S(-2)      0.000e+00  +   0.000e+00  =   0.000e+00
           S(6)      2.500e-05  +   0.000e+00  =   2.500e-05
             Si      4.100e-04  +   0.000e+00  =   4.100e-04

Solution fractions:                   Minimum        Maximum
   Solution   1      1.000e+00      0.000e+00      0.000e+00
   Solution   2      1.000e+00      0.000e+00      0.000e+00

Phase mole transfers:                 Minimum        Maximum
         Halite      1.600e-05      0.000e+00      0.000e+00   NaCl
         Gypsum      1.500e-05      0.000e+00      0.000e+00   CaSO4:2H2O
      Kaolinite     -3.279e-05      0.000e+00      0.000e+00   Al2Si2O5(OH)4
Ca-Montmorillon     -8.201e-05      0.000e+00      0.000e+00   Ca0.165Al2.33Si3.67O10(OH)2
         CO2(g)      2.952e-04      0.000e+00      0.000e+00   CO2
        Calcite      1.215e-04      0.000e+00      0.000e+00   CaCO3
        Biotite      1.400e-05      0.000e+00      0.000e+00   KMg3AlSi3O10(OH)2
    Plagioclase      1.758e-04      0.000e+00      0.000e+00   Na0.62Ca0.37Al1.38Si2.625O8

Redox mole transfers:    

Sum of residuals (epsilons in documentation):         2.949e+00
Sum of delta/uncertainty limit:                       2.949e+00
Maximum fractional error in element concentration:    4.998e-02
===============================================================================


Solution 1: 

                         Input          Delta    Input+Delta
             pH      6.200e+00  +   1.654e-02  =   6.217e+00
             Al      0.000e+00  +   0.000e+00  =   0.000e+00
     Alkalinity      3.280e-04  +   7.300e-06  =   3.353e-04
          C(-4)      0.000e+00  +   0.000e+00  =   0.000e+00
           C(4)      7.825e-04  +   0.000e+00  =   7.825e-04
             Ca      7.800e-05  +   0.000e+00  =   7.800e-05
             Cl      1.400e-05  +   0.000e+00  =   1.400e-05
           H(0)      0.000e+00  +   0.000e+00  =   0.000e+00
              K      2.800e-05  +   0.000e+00  =   2.800e-05
             Mg      2.900e-05  +   0.000e+00  =   2.900e-05
             Na      1.340e-04  +  -6.700e-06  =   1.273e-04
           O(0)      0.000e+00  +   0.000e+00  =   0.000e+00
          S(-2)      0.000e+00  +   0.000e+00  =   0.000e+00
           S(6)      1.000e-05  +   0.000e+00  =   1.000e-05
             Si      2.730e-04  +   3.595e-06  =   2.766e-04

Solution 2: 

                         Input          Delta    Input+Delta
             pH      6.800e+00  +   0.000e+00  =   6.800e+00
             Al      0.000e+00  +   0.000e+00  =   0.000e+00
     Alkalinity      8.951e-04  +   0.000e+00  =   8.951e-04
          C(-4)      0.000e+00  +   0.000e+00  =   0.000e+00
           C(4)      1.199e-03  +   0.000e+00  =   1.199e-03
             Ca      2.600e-04  +   0.000e+00  =   2.600e-04
             Cl      3.000e-05  +   0.000e+00  =   3.000e-05
           H(0)      0.000e+00  +   0.000e+00  =   0.000e+00
              K      4.000e-05  +   1.999e-06  =   4.200e-05
             Mg      7.101e-05  +   0.000e+00  =   7.101e-05
             Na      2.590e-04  +   1.200e-05  =   2.710e-04
           O(0)      0.000e+00  +   0.000e+00  =   0.000e+00
          S(-2)      0.000e+00  +   0.000e+00  =   0.000e+00
           S(6)      2.500e-05  +   0.000e+00  =   2.500e-05
             Si      4.100e-04  +  -2.050e-05  =   3.895e-04

Solution fractions:                   Minimum        Maximum
   Solution   1      1.000e+00      0.000e+00      0.000e+00
   Solution   2      1.000e+00      0.000e+00      0.000e+00

Phase mole transfers:                 Minimum        Maximum
         Halite      1.600e-05      0.000e+00      0.000e+00   NaCl
         Gypsum      1.500e-05      0.000e+00      0.000e+00   CaSO4:2H2O
Ca-Montmorillon     -1.280e-04      0.000e+00      0.000e+00   Ca0.165Al2.33Si3.67O10(OH)2
         CO2(g)      3.048e-04      0.000e+00      0.000e+00   CO2
        Calcite      1.119e-04      0.000e+00      0.000e+00   CaCO3
        Biotite      1.400e-05      0.000e+00      0.000e+00   KMg3AlSi3O10(OH)2
    Plagioclase      2.060e-04      0.000e+00      0.000e+00   Na0.62Ca0.37Al1.38Si2.625O8

Redox mole transfers:    

Sum of residuals (epsilons in documentation):         4.966e+00
Sum of delta/uncertainty limit:                       4.966e+00
Maximum fractional error in element concentration:    5.000e-02

Model contains minimum number of phases.
===============================================================================


Solution 1: 

                         Input          Delta    Input+Delta
             pH      6.200e+00  +   3.173e-02  =   6.232e+00
             Al      0.000e+00  +   0.000e+00  =   0.000e+00
     Alkalinity      3.280e-04  +   1.400e-05  =   3.420e-04
          C(-4)      0.000e+00  +   0.000e+00  =   0.000e+00
           C(4)      7.825e-04  +   0.000e+00  =   7.825e-04
             Ca      7.800e-05  +   0.000e+00  =   7.800e-05
             Cl      1.400e-05  +   0.000e+00  =   1.400e-05
           H(0)      0.000e+00  +   0.000e+00  =   0.000e+00
              K      2.800e-05  +   0.000e+00  =   2.800e-05
             Mg      2.900e-05  +   0.000e+00  =   2.900e-05
             Na      1.340e-04  +   0.000e+00  =   1.340e-04
           O(0)      0.000e+00  +   0.000e+00  =   0.000e+00
          S(-2)      0.000e+00  +   0.000e+00  =   0.000e+00
           S(6)      1.000e-05  +   0.000e+00  =   1.000e-05
             Si      2.730e-04  +   0.000e+00  =   2.730e-04

Solution 2: 

                         Input          Delta    Input+Delta
             pH      6.800e+00  +   0.000e+00  =   6.800e+00
             Al      0.000e+00  +   0.000e+00  =   0.000e+00
     Alkalinity      8.951e-04  +   0.000e+00  =   8.951e-04
          C(-4)      0.000e+00  +   0.000e+00  =   0.000e+00
           C(4)      1.199e-03  +   0.000e+00  =   1.199e-03
             Ca      2.600e-04  +   6.001e-06  =   2.660e-04
             Cl      3.000e-05  +   0.000e+00  =   3.000e-05
           H(0)      0.000e+00  +   0.000e+00  =   0.000e+00
              K      4.000e-05  +   1.999e-06  =   4.200e-05
             Mg      7.101e-05  +   0.000e+00  =   7.101e-05
             Na      2.590e-04  +   0.000e+00  =   2.590e-04
           O(0)      0.000e+00  +   0.000e+00  =   0.000e+00
          S(-2)      0.000e+00  +   0.000e+00  =   0.000e+00
           S(6)      2.500e-05  +   0.000e+00  =   2.500e-05
             Si      4.100e-04  +   0.000e+00  =   4.100e-04

Solution fractions:                   Minimum        Maximum
   Solution   1      1.000e+00      0.000e+00      0.000e+00
   Solution   2      1.000e+00      0.000e+00      0.000e+00

Phase mole transfers:                 Minimum        Maximum
         Halite      1.600e-05      0.000e+00      0.000e+00   NaCl
         Gypsum      1.500e-05      0.000e+00      0.000e+00   CaSO4:2H2O
      Kaolinite     -1.283e-04      0.000e+00      0.000e+00   Al2Si2O5(OH)4
         CO2(g)      3.088e-04      0.000e+00      0.000e+00   CO2
        Calcite      1.080e-04      0.000e+00      0.000e+00   CaCO3
     Chalcedony     -1.099e-04      0.000e+00      0.000e+00   SiO2
        Biotite      1.400e-05      0.000e+00      0.000e+00   KMg3AlSi3O10(OH)2
    Plagioclase      1.758e-04      0.000e+00      0.000e+00   Na0.62Ca0.37Al1.38Si2.625O8

Redox mole transfers:    

Sum of residuals (epsilons in documentation):         2.949e+00
Sum of delta/uncertainty limit:                       2.949e+00
Maximum fractional error in element concentration:    4.998e-02

Model contains minimum number of phases.
===============================================================================


Summary of inverse modeling:

	Number of models found: 3
	Number of minimal models found: 2
	Number of infeasible sets of phases saved: 19
	Number of calls to cl1: 28
------------------
End of simulation.
------------------

------------------------------------
Reading input data for simulation 2.
------------------------------------

	SOLUTION 1 Inflow
		units   mmol/kgw
		pH 	8.1
		Ca	1.698
		Mg	1.730
		Na	9.449
		K	0.435
		Cl	9.234
		S(6)	0.698
		C(4)	6.021
		Si	0.5
	SOLUTION 2 Lake
		pH	7.5
		Ca	11.216
		Mg	491.925
		Na	5428.616
		K	166.479
		Cl	5834.640 
		S(6)	291.427
		C(4)	6.304
		Si	0.5
	INVERSE_MODELING 1
		solutions 1 2
		uncertainty 0.05
		tolerance 1e-10
		balances
			Alkalinity 0.05
		phases
			Halite		p
			Aragonite	p
			CO2(g)		p
			Mirabilite	p
			H2O(g)
			Anorthite
			Albite
			Chalcedony
			Montmorillonite-Aberdeen
			Montmorillonite-BelleFourche	
			Kaolinite   	pre
			Sepiolite	
		multiple_precision
	PHASES
		Halite
		NaCl = Na+ + Cl-
		log_k	0.0
		Biotite
		KMg3AlSi3O10(OH)2 + 6H+ + 4H2O = K+ + 3Mg+2 + Al(OH)4- + 3H4SiO4 
		log_k	0.0
		Plagioclase
		Na0.62Ca0.37Al1.38Si2.625O8 + 5.5 H+ + 2.5H2O = 0.62Na+ + 0.37Ca+2 + 1.38Al+3 + 2.625H4SiO4
		log_k	0.0
		H2O(g)
		H2O = H2O
		log_k	0.0
		Brucite             19
		Mg(OH)2 + 2H+ = Mg+2 + 2H2O 
		log_k	16.84
		delta_h	-27.1 kcal
		Sylvite
		KCl = K+ + Cl-
		log_k	0.0
		NaX
		NaX = Na+ + X- 
		log_k	0.0
		CaX2
		CaX2 = Ca+2 + 2X- 
		log_k	0.0
		Mirabilite
		Na2SO4:10H2O = 2Na+ + SO4-2 + 10H2O
		log_k	0.0
		Montmorillonite-Aberdeen        116
		(HNaK)0.14Mg0.45Fe0.33Al1.47Si3.82O10(OH)2 + 9.16H2O + 0.84H+ = 0.14H+ + 0.14Na+ + 0.14K+ + 0.45Mg+2 + 0.33Fe+3 + 1.47Al(OH)4- + 3.82H4SiO4
		log_k	-29.688	
		Montmorillonite-BelleFourche    115
		(HNaK)0.09Mg0.29Fe0.24Al1.57Si3.93O10(OH)2 + 10H2O = 0.09H+ + 0.09Na+ + 0.09K+ + 0.29Mg+2 + 0.24Fe+3 + 1.57Al(OH)4- + 3.93H4SiO4
		log_k	-34.913	
	END
-------------------------------------------
Beginning of initial solution calculations.
-------------------------------------------

Initial solution 1.	Inflow

-----------------------------Solution composition------------------------------

	Elements           Molality       Moles

	C(4)              6.021e-03   6.021e-03
	Ca                1.698e-03   1.698e-03
	Cl                9.234e-03   9.234e-03
	K                 4.350e-04   4.350e-04
	Mg                1.730e-03   1.730e-03
	Na                9.449e-03   9.449e-03
	S(6)              6.980e-04   6.980e-04
	Si                5.000e-04   5.000e-04

----------------------------Description of solution----------------------------

                                       pH  =   8.100    
                                       pe  =   4.000    
       Specific Conductance (uS/cm, 25 oC) = 1701
                          Density (g/cm3)  =   0.99791
                        Activity of water  =   1.000
                           Ionic strength  =   1.986e-02
                       Mass of water (kg)  =   1.000e+00
                 Total alkalinity (eq/kg)  =   6.070e-03
                       Total CO2 (mol/kg)  =   6.021e-03
                      Temperature (deg C)  =  25.00
                  Electrical balance (eq)  =   3.976e-05
 Percent error, 100*(Cat-|An|)/(Cat+|An|)  =   0.12
                               Iterations  =   7
                                  Total H  = 1.110202e+02
                                  Total O  = 5.552899e+01

----------------------------Distribution of species----------------------------

                                               Log       Log       Log    mole V
   Species          Molality    Activity  Molality  Activity     Gamma   cm3/mol

   OH-             1.454e-06   1.261e-06    -5.837    -5.899    -0.062     -3.95
   H+              8.928e-09   7.943e-09    -8.049    -8.100    -0.051      0.00
   H2O             5.551e+01   9.995e-01     1.744    -0.000     0.000     18.07
C(4)          6.021e-03
   HCO3-           5.641e-03   4.941e-03    -2.249    -2.306    -0.058     24.73
   CO2             8.789e-05   8.829e-05    -4.056    -4.054     0.002     30.26
   CaHCO3+         6.509e-05   5.702e-05    -4.186    -4.244    -0.058      9.77
   MgHCO3+         6.207e-05   5.407e-05    -4.207    -4.267    -0.060      5.58
   CO3-2           4.955e-05   2.917e-05    -4.305    -4.535    -0.230     -3.57
   CaCO3           4.412e-05   4.433e-05    -4.355    -4.353     0.002    -14.60
   NaHCO3          4.030e-05   4.048e-05    -4.395    -4.393     0.002     29.13
   MgCO3           2.591e-05   2.603e-05    -4.586    -4.584     0.002    -17.09
   NaCO3-          5.110e-06   4.451e-06    -5.292    -5.352    -0.060     -2.67
Ca            1.698e-03
   Ca+2            1.537e-03   9.044e-04    -2.813    -3.044    -0.230    -17.91
   CaHCO3+         6.509e-05   5.702e-05    -4.186    -4.244    -0.058      9.77
   CaSO4           5.214e-05   5.238e-05    -4.283    -4.281     0.002      7.50
   CaCO3           4.412e-05   4.433e-05    -4.355    -4.353     0.002    -14.60
   CaOH+           2.168e-08   1.889e-08    -7.664    -7.724    -0.060     (0)  
   CaHSO4+         3.139e-12   2.735e-12   -11.503   -11.563    -0.060     (0)  
Cl            9.234e-03
   Cl-             9.234e-03   8.014e-03    -2.035    -2.096    -0.062     18.16
H(0)          8.893e-28
   H2              4.446e-28   4.467e-28   -27.352   -27.350     0.002     28.61
K             4.350e-04
   K+              4.340e-04   3.767e-04    -3.362    -3.424    -0.062      9.03
   KSO4-           9.894e-07   8.618e-07    -6.005    -6.065    -0.060     (0)  
   KOH             1.636e-10   1.643e-10    -9.786    -9.784     0.002     (0)  
Mg            1.730e-03
   Mg+2            1.570e-03   9.351e-04    -2.804    -3.029    -0.225    -21.21
   MgSO4           7.106e-05   7.138e-05    -4.148    -4.146     0.002      5.84
   MgHCO3+         6.207e-05   5.407e-05    -4.207    -4.267    -0.060      5.58
   MgCO3           2.591e-05   2.603e-05    -4.586    -4.584     0.002    -17.09
   MgOH+           4.904e-07   4.272e-07    -6.309    -6.369    -0.060     (0)  
Na            9.449e-03
   Na+             9.388e-03   8.193e-03    -2.027    -2.087    -0.059     -1.11
   NaHCO3          4.030e-05   4.048e-05    -4.395    -4.393     0.002     29.13
   NaSO4-          1.535e-05   1.337e-05    -4.814    -4.874    -0.060     16.84
   NaCO3-          5.110e-06   4.451e-06    -5.292    -5.352    -0.060     -2.67
   NaOH            1.028e-18   1.033e-18   -17.988   -17.986     0.002     (0)  
O(0)          4.155e-38
   O2              2.078e-38   2.087e-38   -37.682   -37.680     0.002     30.40
S(6)          6.980e-04
   SO4-2           5.585e-04   3.256e-04    -3.253    -3.487    -0.234     15.30
   MgSO4           7.106e-05   7.138e-05    -4.148    -4.146     0.002      5.84
   CaSO4           5.214e-05   5.238e-05    -4.283    -4.281     0.002      7.50
   NaSO4-          1.535e-05   1.337e-05    -4.814    -4.874    -0.060     16.84
   KSO4-           9.894e-07   8.618e-07    -6.005    -6.065    -0.060     (0)  
   HSO4-           2.887e-10   2.515e-10    -9.540    -9.599    -0.060     35.27
   CaHSO4+         3.139e-12   2.735e-12   -11.503   -11.563    -0.060     (0)  
Si            5.000e-04
   H4SiO4          4.895e-04   4.918e-04    -3.310    -3.308     0.002     52.08
   H3SiO4-         1.048e-05   9.129e-06    -4.980    -5.040    -0.060     28.07
   H2SiO4-2        1.358e-10   7.817e-11    -9.867   -10.107    -0.240     (0)  

------------------------------Saturation indices-------------------------------

	Phase               SI   log IAP   log K(298 K,   1 atm)

	Anhydrite        -2.31     -6.53   -4.22  CaSO4
	Aragonite         0.76     -7.58   -8.34  CaCO3
	Brucite          -3.67     13.17   16.84  Mg(OH)2
	Calcite           0.90     -7.58   -8.48  CaCO3
	Chalcedony        0.24     -3.31   -3.55  SiO2
	Chrysotile        0.69     32.90   32.20  Mg3Si2O5(OH)4
	CO2(g)           -2.59     -4.05   -1.46  CO2
	Dolomite          1.95    -15.14  -17.09  CaMg(CO3)2
	Gypsum           -1.95     -6.53   -4.58  CaSO4:2H2O
	H2(g)           -24.25    -27.35   -3.10  H2
	H2O(g)           -0.00     -0.00    0.00  H2O
	Halite           -4.18     -4.18    0.00  NaCl
	Mirabilite       -7.66     -7.66    0.00  Na2SO4:10H2O
	O2(g)           -34.79    -37.68   -2.89  O2
	Quartz            0.67     -3.31   -3.98  SiO2
	Sepiolite         0.66     16.42   15.76  Mg2Si3O7.5OH:3H2O
	Sepiolite(d)     -2.24     16.42   18.66  Mg2Si3O7.5OH:3H2O
	SiO2(a)          -0.60     -3.31   -2.71  SiO2
	Sylvite          -5.52     -5.52    0.00  KCl
	Talc              4.88     26.28   21.40  Mg3Si4O10(OH)2


Initial solution 2.	Lake

-----------------------------Solution composition------------------------------

	Elements           Molality       Moles

	C(4)              6.304e-03   6.304e-03
	Ca                1.122e-02   1.122e-02
	Cl                5.835e+00   5.835e+00
	K                 1.665e-01   1.665e-01
	Mg                4.919e-01   4.919e-01
	Na                5.429e+00   5.429e+00
	S(6)              2.914e-01   2.914e-01
	Si                5.000e-04   5.000e-04

----------------------------Description of solution----------------------------

                                       pH  =   7.500    
                                       pe  =   4.000    
       Specific Conductance (uS/cm, 25 oC) = 422387
                          Density (g/cm3)  =   1.21904
                        Activity of water  =   0.796
                           Ionic strength  =   6.531e+00
                       Mass of water (kg)  =   1.000e+00
                 Total alkalinity (eq/kg)  =   6.620e-03
                       Total CO2 (mol/kg)  =   6.304e-03
                      Temperature (deg C)  =  25.00
                  Electrical balance (eq)  =   1.773e-01
 Percent error, 100*(Cat-|An|)/(Cat+|An|)  =   1.45
                               Iterations  =   6
                                  Total H  = 1.110204e+02
                                  Total O  = 5.669283e+01

----------------------------Distribution of species----------------------------

                                               Log       Log       Log    mole V
   Species          Molality    Activity  Molality  Activity     Gamma   cm3/mol

   OH-             5.404e-07   2.522e-07    -6.267    -6.598    -0.331      8.79
   H+              4.491e-08   3.162e-08    -7.348    -7.500    -0.152      0.00
   H2O             5.551e+01   7.958e-01     1.744    -0.099     0.000     18.07
C(4)          6.304e-03
   MgHCO3+         2.108e-03   9.049e-03    -2.676    -2.043     0.633      7.81
   NaHCO3          1.878e-03   8.450e-03    -2.726    -2.073     0.653     29.13
   HCO3-           1.740e-03   1.011e-03    -2.760    -2.995    -0.236     41.32
   MgCO3           2.433e-04   1.094e-03    -3.614    -2.961     0.653    -17.09
   CaHCO3+         2.410e-04   1.401e-04    -3.618    -3.854    -0.236     12.01
   NaCO3-          5.436e-05   2.333e-04    -4.265    -3.632     0.633     32.75
   CO2             2.009e-05   9.036e-05    -4.697    -4.044     0.653     30.26
   CO3-2           1.313e-05   1.500e-06    -4.882    -5.824    -0.942      8.30
   CaCO3           6.080e-06   2.735e-05    -5.216    -4.563     0.653    -14.60
Ca            1.122e-02
   Ca+2            9.145e-03   1.086e-02    -2.039    -1.964     0.074    -13.84
   CaSO4           1.824e-03   8.205e-03    -2.739    -2.086     0.653      7.50
   CaHCO3+         2.410e-04   1.401e-04    -3.618    -3.854    -0.236     12.01
   CaCO3           6.080e-06   2.735e-05    -5.216    -4.563     0.653    -14.60
   CaOH+           1.056e-08   4.534e-08    -7.976    -7.344     0.633     (0)  
   CaHSO4+         3.973e-10   1.706e-09    -9.401    -8.768     0.633     (0)  
Cl            5.835e+00
   Cl-             5.835e+00   3.412e+00     0.766     0.533    -0.233     20.12
H(0)          3.147e-27
   H2              1.574e-27   7.079e-27   -26.803   -26.150     0.653     28.61
K             1.665e-01
   K+              1.658e-01   9.696e-02    -0.780    -1.013    -0.233     12.03
   KSO4-           6.746e-04   2.896e-03    -3.171    -2.538     0.633     (0)  
   KOH             1.881e-09   8.460e-09    -8.726    -8.073     0.653     (0)  
Mg            4.919e-01
   Mg+2            3.202e-01   7.647e-01    -0.495    -0.117     0.378    -17.37
   MgSO4           1.693e-01   7.619e-01    -0.771    -0.118     0.653      5.84
   MgHCO3+         2.108e-03   9.049e-03    -2.676    -2.043     0.633      7.81
   MgCO3           2.433e-04   1.094e-03    -3.614    -2.961     0.653    -17.09
   MgOH+           1.628e-05   6.986e-05    -4.788    -4.156     0.633     (0)  
Na            5.429e+00
   Na+             5.385e+00   8.355e+00     0.731     0.922     0.191      1.76
   NaSO4-          4.146e-02   1.780e-01    -1.382    -0.750     0.633     42.26
   NaHCO3          1.878e-03   8.450e-03    -2.726    -2.073     0.653     29.13
   NaCO3-          5.436e-05   2.333e-04    -4.265    -3.632     0.633     32.75
   NaOH            4.684e-17   2.107e-16   -16.329   -15.676     0.653     (0)  
O(0)          0.000e+00
   O2              0.000e+00   0.000e+00   -40.932   -40.278     0.653     30.40
S(6)          2.914e-01
   MgSO4           1.693e-01   7.619e-01    -0.771    -0.118     0.653      5.84
   SO4-2           7.812e-02   4.250e-03    -1.107    -2.372    -1.264     27.65
   NaSO4-          4.146e-02   1.780e-01    -1.382    -0.750     0.633     42.26
   CaSO4           1.824e-03   8.205e-03    -2.739    -2.086     0.653      7.50
   KSO4-           6.746e-04   2.896e-03    -3.171    -2.538     0.633     (0)  
   HSO4-           3.044e-09   1.307e-08    -8.517    -7.884     0.633     37.50
   CaHSO4+         3.973e-10   1.706e-09    -9.401    -8.768     0.633     (0)  
Si            5.000e-04
   H4SiO4          4.976e-04   2.238e-03    -3.303    -2.650     0.653     52.08
   H3SiO4-         2.432e-06   1.044e-05    -5.614    -4.981     0.633     30.31
   H2SiO4-2        6.614e-14   2.245e-11   -13.180   -10.649     2.531     (0)  

------------------------------Saturation indices-------------------------------

	Phase               SI   log IAP   log K(298 K,   1 atm)

	Anhydrite        -0.12     -4.34   -4.22  CaSO4
	Aragonite         0.55     -7.79   -8.34  CaCO3
	Brucite          -2.15     14.69   16.84  Mg(OH)2
	Calcite           0.69     -7.79   -8.48  CaCO3
	Chalcedony        1.10     -2.45   -3.55  SiO2
	Chrysotile        7.05     39.25   32.20  Mg3Si2O5(OH)4
	CO2(g)           -2.58     -4.04   -1.46  CO2
	Dolomite          3.36    -13.73  -17.09  CaMg(CO3)2
	Gypsum            0.05     -4.53   -4.58  CaSO4:2H2O
	H2(g)           -23.05    -26.15   -3.10  H2
	H2O(g)           -0.10     -0.10    0.00  H2O
	Halite            1.45      1.45    0.00  NaCl
	Mirabilite       -1.52     -1.52    0.00  Na2SO4:10H2O
	O2(g)           -37.39    -40.28   -2.89  O2
	Quartz            1.53     -2.45   -3.98  SiO2
	Sepiolite         6.11     21.87   15.76  Mg2Si3O7.5OH:3H2O
	Sepiolite(d)      3.21     21.87   18.66  Mg2Si3O7.5OH:3H2O
	SiO2(a)           0.26     -2.45   -2.71  SiO2
	Sylvite          -0.48     -0.48    0.00  KCl
	Talc             13.05     34.45   21.40  Mg3Si4O10(OH)2


---------------------------------------------
Beginning of inverse modeling 1 calculations.
---------------------------------------------

Using Cl1MP multiprecision optimization routine.

Solution 1: Inflow

                         Input          Delta    Input+Delta
             pH      8.100e+00  +   0.000e+00  =   8.100e+00
             Al      0.000e+00  +   0.000e+00  =   0.000e+00
     Alkalinity      6.070e-03  +   0.000e+00  =   6.070e-03
          C(-4)      0.000e+00  +   0.000e+00  =   0.000e+00
           C(4)      6.021e-03  +   0.000e+00  =   6.021e-03
             Ca      1.698e-03  +   0.000e+00  =   1.698e-03
             Cl      9.234e-03  +   0.000e+00  =   9.234e-03
          Fe(2)      0.000e+00  +   0.000e+00  =   0.000e+00
          Fe(3)      0.000e+00  +   0.000e+00  =   0.000e+00
           H(0)      0.000e+00  +   0.000e+00  =   0.000e+00
              K      4.350e-04  +   0.000e+00  =   4.350e-04
             Mg      1.730e-03  +   0.000e+00  =   1.730e-03
             Na      9.449e-03  +  -3.976e-05  =   9.409e-03
           O(0)      0.000e+00  +   0.000e+00  =   0.000e+00
          S(-2)      0.000e+00  +   0.000e+00  =   0.000e+00
           S(6)      6.980e-04  +   0.000e+00  =   6.980e-04
             Si      5.000e-04  +   0.000e+00  =   5.000e-04

Solution 2: Lake

                         Input          Delta    Input+Delta
             pH      7.500e+00  +   0.000e+00  =   7.500e+00
             Al      0.000e+00  +   0.000e+00  =   0.000e+00
     Alkalinity      6.620e-03  +   0.000e+00  =   6.620e-03
          C(-4)      0.000e+00  +   0.000e+00  =   0.000e+00
           C(4)      6.304e-03  +   0.000e+00  =   6.304e-03
             Ca      1.122e-02  +   0.000e+00  =   1.122e-02
             Cl      5.835e+00  +  -9.417e-02  =   5.740e+00
          Fe(2)      0.000e+00  +   0.000e+00  =   0.000e+00
          Fe(3)      0.000e+00  +   0.000e+00  =   0.000e+00
           H(0)      0.000e+00  +   0.000e+00  =   0.000e+00
              K      1.665e-01  +   0.000e+00  =   1.665e-01
             Mg      4.919e-01  +   0.000e+00  =   4.919e-01
             Na      5.429e+00  +  -2.714e-01  =   5.157e+00
           O(0)      0.000e+00  +   0.000e+00  =   0.000e+00
          S(-2)      0.000e+00  +   0.000e+00  =   0.000e+00
           S(6)      2.914e-01  +   0.000e+00  =   2.914e-01
             Si      5.000e-04  +   0.000e+00  =   5.000e-04

Solution fractions:                   Minimum        Maximum
   Solution   1      6.217e+02      0.000e+00      0.000e+00
   Solution   2      1.000e+00      0.000e+00      0.000e+00

Phase mole transfers:                 Minimum        Maximum
      Aragonite     -3.737e+00      0.000e+00      0.000e+00   CaCO3
     Mirabilite     -1.425e-01      0.000e+00      0.000e+00   Na2SO4:10H2O
         H2O(g)     -3.444e+04      0.000e+00      0.000e+00   H2O
      Anorthite      2.692e+00      0.000e+00      0.000e+00   CaAl2Si2O8
         Albite     -3.033e-01      0.000e+00      0.000e+00   NaAlSi3O8
     Chalcedony     -5.045e+00      0.000e+00      0.000e+00   SiO2
Montmorillonite     -6.397e+00      0.000e+00      0.000e+00   (HNaK)0.14Mg0.45Fe0.33Al1.47Si3.82O10(OH)2
Montmorillonite      8.795e+00      0.000e+00      0.000e+00   (HNaK)0.09Mg0.29Fe0.24Al1.57Si3.93O10(OH)2
      Kaolinite     -4.744e+00      0.000e+00      0.000e+00   Al2Si2O5(OH)4
      Sepiolite     -1.279e-01      0.000e+00      0.000e+00   Mg2Si3O7.5OH:3H2O

Redox mole transfers:    

Sum of residuals (epsilons in documentation):         5.364e+01
Sum of delta/uncertainty limit:                       1.407e+00
Maximum fractional error in element concentration:    5.000e-02
===============================================================================


Solution 1: Inflow

                         Input          Delta    Input+Delta
             pH      8.100e+00  +   0.000e+00  =   8.100e+00
             Al      0.000e+00  +   0.000e+00  =   0.000e+00
     Alkalinity      6.070e-03  +   0.000e+00  =   6.070e-03
          C(-4)      0.000e+00  +   0.000e+00  =   0.000e+00
           C(4)      6.021e-03  +   0.000e+00  =   6.021e-03
             Ca      1.698e-03  +   3.920e-05  =   1.737e-03
             Cl      9.234e-03  +   0.000e+00  =   9.234e-03
          Fe(2)      0.000e+00  +   0.000e+00  =   0.000e+00
          Fe(3)      0.000e+00  +   0.000e+00  =   0.000e+00
           H(0)      0.000e+00  +   0.000e+00  =   0.000e+00
              K      4.350e-04  +   0.000e+00  =   4.350e-04
             Mg      1.730e-03  +   8.650e-05  =   1.817e-03
             Na      9.449e-03  +  -2.912e-04  =   9.158e-03
           O(0)      0.000e+00  +   0.000e+00  =   0.000e+00
          S(-2)      0.000e+00  +   0.000e+00  =   0.000e+00
           S(6)      6.980e-04  +   0.000e+00  =   6.980e-04
             Si      5.000e-04  +   0.000e+00  =   5.000e-04

Solution 2: Lake

                         Input          Delta    Input+Delta
             pH      7.500e+00  +   0.000e+00  =   7.500e+00
             Al      0.000e+00  +   0.000e+00  =   0.000e+00
     Alkalinity      6.620e-03  +   3.300e-04  =   6.950e-03
          C(-4)      0.000e+00  +   0.000e+00  =   0.000e+00
           C(4)      6.304e-03  +   3.152e-04  =   6.619e-03
             Ca      1.122e-02  +  -5.608e-04  =   1.066e-02
             Cl      5.835e+00  +   2.917e-01  =   6.126e+00
          Fe(2)      0.000e+00  +   0.000e+00  =   0.000e+00
          Fe(3)      0.000e+00  +   0.000e+00  =   0.000e+00
           H(0)      0.000e+00  +   0.000e+00  =   0.000e+00
              K      1.665e-01  +  -8.324e-03  =   1.582e-01
             Mg      4.919e-01  +  -2.460e-02  =   4.673e-01
             Na      5.429e+00  +   1.734e-01  =   5.602e+00
           O(0)      0.000e+00  +   0.000e+00  =   0.000e+00
          S(-2)      0.000e+00  +   0.000e+00  =   0.000e+00
           S(6)      2.914e-01  +   0.000e+00  =   2.914e-01
             Si      5.000e-04  +   0.000e+00  =   5.000e-04

Solution fractions:                   Minimum        Maximum
   Solution   1      6.635e+02      0.000e+00      0.000e+00
   Solution   2      1.000e+00      0.000e+00      0.000e+00

Phase mole transfers:                 Minimum        Maximum
      Aragonite     -3.988e+00      0.000e+00      0.000e+00   CaCO3
     Mirabilite     -1.717e-01      0.000e+00      0.000e+00   Na2SO4:10H2O
         H2O(g)     -3.676e+04      0.000e+00      0.000e+00   H2O
      Anorthite      2.846e+00      0.000e+00      0.000e+00   CaAl2Si2O8
     Chalcedony     -7.026e+00      0.000e+00      0.000e+00   SiO2
Montmorillonite     -8.028e+00      0.000e+00      0.000e+00   (HNaK)0.14Mg0.45Fe0.33Al1.47Si3.82O10(OH)2
Montmorillonite      1.104e+01      0.000e+00      0.000e+00   (HNaK)0.09Mg0.29Fe0.24Al1.57Si3.93O10(OH)2
      Kaolinite     -5.611e+00      0.000e+00      0.000e+00   Al2Si2O5(OH)4
      Sepiolite     -1.632e-01      0.000e+00      0.000e+00   Mg2Si3O7.5OH:3H2O

Redox mole transfers:    

Sum of residuals (epsilons in documentation):         1.385e+03
Sum of delta/uncertainty limit:                       8.714e+00
Maximum fractional error in element concentration:    5.000e-02

Model contains minimum number of phases.
===============================================================================


Solution 1: Inflow

                         Input          Delta    Input+Delta
             pH      8.100e+00  +   0.000e+00  =   8.100e+00
             Al      0.000e+00  +   0.000e+00  =   0.000e+00
     Alkalinity      6.070e-03  +   0.000e+00  =   6.070e-03
          C(-4)      0.000e+00  +   0.000e+00  =   0.000e+00
           C(4)      6.021e-03  +   0.000e+00  =   6.021e-03
             Ca      1.698e-03  +   0.000e+00  =   1.698e-03
             Cl      9.234e-03  +   0.000e+00  =   9.234e-03
          Fe(2)      0.000e+00  +   0.000e+00  =   0.000e+00
          Fe(3)      0.000e+00  +   0.000e+00  =   0.000e+00
           H(0)      0.000e+00  +   0.000e+00  =   0.000e+00
              K      4.350e-04  +   0.000e+00  =   4.350e-04
             Mg      1.730e-03  +   0.000e+00  =   1.730e-03
             Na      9.449e-03  +  -3.976e-05  =   9.409e-03
           O(0)      0.000e+00  +   0.000e+00  =   0.000e+00
          S(-2)      0.000e+00  +   0.000e+00  =   0.000e+00
           S(6)      6.980e-04  +   0.000e+00  =   6.980e-04
             Si      5.000e-04  +   0.000e+00  =   5.000e-04

Solution 2: Lake

                         Input          Delta    Input+Delta
             pH      7.500e+00  +   0.000e+00  =   7.500e+00
             Al      0.000e+00  +   0.000e+00  =   0.000e+00
     Alkalinity      6.620e-03  +   0.000e+00  =   6.620e-03
          C(-4)      0.000e+00  +   0.000e+00  =   0.000e+00
           C(4)      6.304e-03  +   0.000e+00  =   6.304e-03
             Ca      1.122e-02  +   0.000e+00  =   1.122e-02
             Cl      5.835e+00  +   1.281e-01  =   5.963e+00
          Fe(2)      0.000e+00  +   0.000e+00  =   0.000e+00
          Fe(3)      0.000e+00  +   0.000e+00  =   0.000e+00
           H(0)      0.000e+00  +   0.000e+00  =   0.000e+00
              K      1.665e-01  +   0.000e+00  =   1.665e-01
             Mg      4.919e-01  +  -2.460e-02  =   4.673e-01
             Na      5.429e+00  +   0.000e+00  =   5.429e+00
           O(0)      0.000e+00  +   0.000e+00  =   0.000e+00
          S(-2)      0.000e+00  +   0.000e+00  =   0.000e+00
           S(6)      2.914e-01  +   0.000e+00  =   2.914e-01
             Si      5.000e-04  +   0.000e+00  =   5.000e-04

Solution fractions:                   Minimum        Maximum
   Solution   1      7.751e+02      0.000e+00      0.000e+00
   Solution   2      1.000e+00      0.000e+00      0.000e+00

Phase mole transfers:                 Minimum        Maximum
         Halite     -1.195e+00      0.000e+00      0.000e+00   NaCl
      Aragonite     -4.661e+00      0.000e+00      0.000e+00   CaCO3
     Mirabilite     -2.496e-01      0.000e+00      0.000e+00   Na2SO4:10H2O
         H2O(g)     -4.296e+04      0.000e+00      0.000e+00   H2O
      Anorthite      3.356e+00      0.000e+00      0.000e+00   CaAl2Si2O8
     Chalcedony     -9.286e+00      0.000e+00      0.000e+00   SiO2
Montmorillonite     -1.050e+01      0.000e+00      0.000e+00   (HNaK)0.14Mg0.45Fe0.33Al1.47Si3.82O10(OH)2
Montmorillonite      1.444e+01      0.000e+00      0.000e+00   (HNaK)0.09Mg0.29Fe0.24Al1.57Si3.93O10(OH)2
      Kaolinite     -6.973e+00      0.000e+00      0.000e+00   Al2Si2O5(OH)4
      Sepiolite     -1.676e-01      0.000e+00      0.000e+00   Mg2Si3O7.5OH:3H2O

Redox mole transfers:    

Sum of residuals (epsilons in documentation):         6.667e+01
Sum of delta/uncertainty limit:                       1.523e+00
Maximum fractional error in element concentration:    5.000e-02
===============================================================================


Solution 1: Inflow

                         Input          Delta    Input+Delta
             pH      8.100e+00  +   0.000e+00  =   8.100e+00
             Al      0.000e+00  +   0.000e+00  =   0.000e+00
     Alkalinity      6.070e-03  +   0.000e+00  =   6.070e-03
          C(-4)      0.000e+00  +   0.000e+00  =   0.000e+00
           C(4)      6.021e-03  +   0.000e+00  =   6.021e-03
             Ca      1.698e-03  +   0.000e+00  =   1.698e-03
             Cl      9.234e-03  +   0.000e+00  =   9.234e-03
          Fe(2)      0.000e+00  +   0.000e+00  =   0.000e+00
          Fe(3)      0.000e+00  +   0.000e+00  =   0.000e+00
           H(0)      0.000e+00  +   0.000e+00  =   0.000e+00
              K      4.350e-04  +   0.000e+00  =   4.350e-04
             Mg      1.730e-03  +   0.000e+00  =   1.730e-03
             Na      9.449e-03  +  -3.976e-05  =   9.409e-03
           O(0)      0.000e+00  +   0.000e+00  =   0.000e+00
          S(-2)      0.000e+00  +   0.000e+00  =   0.000e+00
           S(6)      6.980e-04  +   0.000e+00  =   6.980e-04
             Si      5.000e-04  +   0.000e+00  =   5.000e-04

Solution 2: Lake

                         Input          Delta    Input+Delta
             pH      7.500e+00  +   0.000e+00  =   7.500e+00
             Al      0.000e+00  +   0.000e+00  =   0.000e+00
     Alkalinity      6.620e-03  +   0.000e+00  =   6.620e-03
          C(-4)      0.000e+00  +   0.000e+00  =   0.000e+00
           C(4)      6.304e-03  +   0.000e+00  =   6.304e-03
             Ca      1.122e-02  +   0.000e+00  =   1.122e-02
             Cl      5.835e+00  +  -9.417e-02  =   5.740e+00
          Fe(2)      0.000e+00  +   0.000e+00  =   0.000e+00
          Fe(3)      0.000e+00  +   0.000e+00  =   0.000e+00
           H(0)      0.000e+00  +   0.000e+00  =   0.000e+00
              K      1.665e-01  +   0.000e+00  =   1.665e-01
             Mg      4.919e-01  +   0.000e+00  =   4.919e-01
             Na      5.429e+00  +  -2.714e-01  =   5.157e+00
           O(0)      0.000e+00  +   0.000e+00  =   0.000e+00
          S(-2)      0.000e+00  +   0.000e+00  =   0.000e+00
           S(6)      2.914e-01  +   0.000e+00  =   2.914e-01
             Si      5.000e-04  +   0.000e+00  =   5.000e-04

Solution fractions:                   Minimum        Maximum
   Solution   1      6.217e+02      0.000e+00      0.000e+00
   Solution   2      1.000e+00      0.000e+00      0.000e+00

Phase mole transfers:                 Minimum        Maximum
      Aragonite     -1.044e+00      0.000e+00      0.000e+00   CaCO3
         CO2(g)     -2.692e+00      0.000e+00      0.000e+00   CO2
     Mirabilite     -1.425e-01      0.000e+00      0.000e+00   Na2SO4:10H2O
         H2O(g)     -3.445e+04      0.000e+00      0.000e+00   H2O
         Albite     -3.033e-01      0.000e+00      0.000e+00   NaAlSi3O8
     Chalcedony     -5.045e+00      0.000e+00      0.000e+00   SiO2
Montmorillonite     -6.397e+00      0.000e+00      0.000e+00   (HNaK)0.14Mg0.45Fe0.33Al1.47Si3.82O10(OH)2
Montmorillonite      8.795e+00      0.000e+00      0.000e+00   (HNaK)0.09Mg0.29Fe0.24Al1.57Si3.93O10(OH)2
      Kaolinite     -2.051e+00      0.000e+00      0.000e+00   Al2Si2O5(OH)4
      Sepiolite     -1.279e-01      0.000e+00      0.000e+00   Mg2Si3O7.5OH:3H2O

Redox mole transfers:    

Sum of residuals (epsilons in documentation):         5.364e+01
Sum of delta/uncertainty limit:                       1.407e+00
Maximum fractional error in element concentration:    5.000e-02
===============================================================================


Solution 1: Inflow

                         Input          Delta    Input+Delta
             pH      8.100e+00  +   0.000e+00  =   8.100e+00
             Al      0.000e+00  +   0.000e+00  =   0.000e+00
     Alkalinity      6.070e-03  +   0.000e+00  =   6.070e-03
          C(-4)      0.000e+00  +   0.000e+00  =   0.000e+00
           C(4)      6.021e-03  +   0.000e+00  =   6.021e-03
             Ca      1.698e-03  +   3.920e-05  =   1.737e-03
             Cl      9.234e-03  +   0.000e+00  =   9.234e-03
          Fe(2)      0.000e+00  +   0.000e+00  =   0.000e+00
          Fe(3)      0.000e+00  +   0.000e+00  =   0.000e+00
           H(0)      0.000e+00  +   0.000e+00  =   0.000e+00
              K      4.350e-04  +   0.000e+00  =   4.350e-04
             Mg      1.730e-03  +   8.650e-05  =   1.817e-03
             Na      9.449e-03  +  -2.912e-04  =   9.158e-03
           O(0)      0.000e+00  +   0.000e+00  =   0.000e+00
          S(-2)      0.000e+00  +   0.000e+00  =   0.000e+00
           S(6)      6.980e-04  +   0.000e+00  =   6.980e-04
             Si      5.000e-04  +   0.000e+00  =   5.000e-04

Solution 2: Lake

                         Input          Delta    Input+Delta
             pH      7.500e+00  +   0.000e+00  =   7.500e+00
             Al      0.000e+00  +   0.000e+00  =   0.000e+00
     Alkalinity      6.620e-03  +   3.300e-04  =   6.950e-03
          C(-4)      0.000e+00  +   0.000e+00  =   0.000e+00
           C(4)      6.304e-03  +   3.152e-04  =   6.619e-03
             Ca      1.122e-02  +  -5.608e-04  =   1.066e-02
             Cl      5.835e+00  +   2.917e-01  =   6.126e+00
          Fe(2)      0.000e+00  +   0.000e+00  =   0.000e+00
          Fe(3)      0.000e+00  +   0.000e+00  =   0.000e+00
           H(0)      0.000e+00  +   0.000e+00  =   0.000e+00
              K      1.665e-01  +  -8.324e-03  =   1.582e-01
             Mg      4.919e-01  +  -2.460e-02  =   4.673e-01
             Na      5.429e+00  +   1.734e-01  =   5.602e+00
           O(0)      0.000e+00  +   0.000e+00  =   0.000e+00
          S(-2)      0.000e+00  +   0.000e+00  =   0.000e+00
           S(6)      2.914e-01  +   0.000e+00  =   2.914e-01
             Si      5.000e-04  +   0.000e+00  =   5.000e-04

Solution fractions:                   Minimum        Maximum
   Solution   1      6.635e+02      0.000e+00      0.000e+00
   Solution   2      1.000e+00      0.000e+00      0.000e+00

Phase mole transfers:                 Minimum        Maximum
      Aragonite     -1.142e+00      0.000e+00      0.000e+00   CaCO3
         CO2(g)     -2.846e+00      0.000e+00      0.000e+00   CO2
     Mirabilite     -1.717e-01      0.000e+00      0.000e+00   Na2SO4:10H2O
         H2O(g)     -3.677e+04      0.000e+00      0.000e+00   H2O
     Chalcedony     -7.026e+00      0.000e+00      0.000e+00   SiO2
Montmorillonite     -8.028e+00      0.000e+00      0.000e+00   (HNaK)0.14Mg0.45Fe0.33Al1.47Si3.82O10(OH)2
Montmorillonite      1.104e+01      0.000e+00      0.000e+00   (HNaK)0.09Mg0.29Fe0.24Al1.57Si3.93O10(OH)2
      Kaolinite     -2.765e+00      0.000e+00      0.000e+00   Al2Si2O5(OH)4
      Sepiolite     -1.632e-01      0.000e+00      0.000e+00   Mg2Si3O7.5OH:3H2O

Redox mole transfers:    

Sum of residuals (epsilons in documentation):         1.385e+03
Sum of delta/uncertainty limit:                       8.714e+00
Maximum fractional error in element concentration:    5.000e-02

Model contains minimum number of phases.
===============================================================================


Solution 1: Inflow

                         Input          Delta    Input+Delta
             pH      8.100e+00  +   0.000e+00  =   8.100e+00
             Al      0.000e+00  +   0.000e+00  =   0.000e+00
     Alkalinity      6.070e-03  +   0.000e+00  =   6.070e-03
          C(-4)      0.000e+00  +   0.000e+00  =   0.000e+00
           C(4)      6.021e-03  +   0.000e+00  =   6.021e-03
             Ca      1.698e-03  +   0.000e+00  =   1.698e-03
             Cl      9.234e-03  +   0.000e+00  =   9.234e-03
          Fe(2)      0.000e+00  +   0.000e+00  =   0.000e+00
          Fe(3)      0.000e+00  +   0.000e+00  =   0.000e+00
           H(0)      0.000e+00  +   0.000e+00  =   0.000e+00
              K      4.350e-04  +   0.000e+00  =   4.350e-04
             Mg      1.730e-03  +   0.000e+00  =   1.730e-03
             Na      9.449e-03  +  -3.976e-05  =   9.409e-03
           O(0)      0.000e+00  +   0.000e+00  =   0.000e+00
          S(-2)      0.000e+00  +   0.000e+00  =   0.000e+00
           S(6)      6.980e-04  +   0.000e+00  =   6.980e-04
             Si      5.000e-04  +   0.000e+00  =   5.000e-04

Solution 2: Lake

                         Input          Delta    Input+Delta
             pH      7.500e+00  +   0.000e+00  =   7.500e+00
             Al      0.000e+00  +   0.000e+00  =   0.000e+00
     Alkalinity      6.620e-03  +   0.000e+00  =   6.620e-03
          C(-4)      0.000e+00  +   0.000e+00  =   0.000e+00
           C(4)      6.304e-03  +   0.000e+00  =   6.304e-03
             Ca      1.122e-02  +   0.000e+00  =   1.122e-02
             Cl      5.835e+00  +  -9.417e-02  =   5.740e+00
          Fe(2)      0.000e+00  +   0.000e+00  =   0.000e+00
          Fe(3)      0.000e+00  +   0.000e+00  =   0.000e+00
           H(0)      0.000e+00  +   0.000e+00  =   0.000e+00
              K      1.665e-01  +   0.000e+00  =   1.665e-01
             Mg      4.919e-01  +   0.000e+00  =   4.919e-01
             Na      5.429e+00  +  -2.714e-01  =   5.157e+00
           O(0)      0.000e+00  +   0.000e+00  =   0.000e+00
          S(-2)      0.000e+00  +   0.000e+00  =   0.000e+00
           S(6)      2.914e-01  +   0.000e+00  =   2.914e-01
             Si      5.000e-04  +   0.000e+00  =   5.000e-04

Solution fractions:                   Minimum        Maximum
   Solution   1      6.217e+02      0.000e+00      0.000e+00
   Solution   2      1.000e+00      0.000e+00      0.000e+00

Phase mole transfers:                 Minimum        Maximum
         CO2(g)     -3.737e+00      0.000e+00      0.000e+00   CO2
     Mirabilite     -1.425e-01      0.000e+00      0.000e+00   Na2SO4:10H2O
         H2O(g)     -3.445e+04      0.000e+00      0.000e+00   H2O
      Anorthite     -1.044e+00      0.000e+00      0.000e+00   CaAl2Si2O8
         Albite     -3.033e-01      0.000e+00      0.000e+00   NaAlSi3O8
     Chalcedony     -5.045e+00      0.000e+00      0.000e+00   SiO2
Montmorillonite     -6.397e+00      0.000e+00      0.000e+00   (HNaK)0.14Mg0.45Fe0.33Al1.47Si3.82O10(OH)2
Montmorillonite      8.795e+00      0.000e+00      0.000e+00   (HNaK)0.09Mg0.29Fe0.24Al1.57Si3.93O10(OH)2
      Kaolinite     -1.007e+00      0.000e+00      0.000e+00   Al2Si2O5(OH)4
      Sepiolite     -1.279e-01      0.000e+00      0.000e+00   Mg2Si3O7.5OH:3H2O

Redox mole transfers:    

Sum of residuals (epsilons in documentation):         5.364e+01
Sum of delta/uncertainty limit:                       1.407e+00
Maximum fractional error in element concentration:    5.000e-02
===============================================================================


Solution 1: Inflow

                         Input          Delta    Input+Delta
             pH      8.100e+00  +   0.000e+00  =   8.100e+00
             Al      0.000e+00  +   0.000e+00  =   0.000e+00
     Alkalinity      6.070e-03  +   0.000e+00  =   6.070e-03
          C(-4)      0.000e+00  +   0.000e+00  =   0.000e+00
           C(4)      6.021e-03  +   0.000e+00  =   6.021e-03
             Ca      1.698e-03  +   3.920e-05  =   1.737e-03
             Cl      9.234e-03  +   0.000e+00  =   9.234e-03
          Fe(2)      0.000e+00  +   0.000e+00  =   0.000e+00
          Fe(3)      0.000e+00  +   0.000e+00  =   0.000e+00
           H(0)      0.000e+00  +   0.000e+00  =   0.000e+00
              K      4.350e-04  +   0.000e+00  =   4.350e-04
             Mg      1.730e-03  +   8.650e-05  =   1.817e-03
             Na      9.449e-03  +  -2.912e-04  =   9.158e-03
           O(0)      0.000e+00  +   0.000e+00  =   0.000e+00
          S(-2)      0.000e+00  +   0.000e+00  =   0.000e+00
           S(6)      6.980e-04  +   0.000e+00  =   6.980e-04
             Si      5.000e-04  +   0.000e+00  =   5.000e-04

Solution 2: Lake

                         Input          Delta    Input+Delta
             pH      7.500e+00  +   0.000e+00  =   7.500e+00
             Al      0.000e+00  +   0.000e+00  =   0.000e+00
     Alkalinity      6.620e-03  +   3.300e-04  =   6.950e-03
          C(-4)      0.000e+00  +   0.000e+00  =   0.000e+00
           C(4)      6.304e-03  +   3.152e-04  =   6.619e-03
             Ca      1.122e-02  +  -5.608e-04  =   1.066e-02
             Cl      5.835e+00  +   2.917e-01  =   6.126e+00
          Fe(2)      0.000e+00  +   0.000e+00  =   0.000e+00
          Fe(3)      0.000e+00  +   0.000e+00  =   0.000e+00
           H(0)      0.000e+00  +   0.000e+00  =   0.000e+00
              K      1.665e-01  +  -8.324e-03  =   1.582e-01
             Mg      4.919e-01  +  -2.460e-02  =   4.673e-01
             Na      5.429e+00  +   1.734e-01  =   5.602e+00
           O(0)      0.000e+00  +   0.000e+00  =   0.000e+00
          S(-2)      0.000e+00  +   0.000e+00  =   0.000e+00
           S(6)      2.914e-01  +   0.000e+00  =   2.914e-01
             Si      5.000e-04  +   0.000e+00  =   5.000e-04

Solution fractions:                   Minimum        Maximum
   Solution   1      6.635e+02      0.000e+00      0.000e+00
   Solution   2      1.000e+00      0.000e+00      0.000e+00

Phase mole transfers:                 Minimum        Maximum
         CO2(g)     -3.988e+00      0.000e+00      0.000e+00   CO2
     Mirabilite     -1.717e-01      0.000e+00      0.000e+00   Na2SO4:10H2O
         H2O(g)     -3.677e+04      0.000e+00      0.000e+00   H2O
      Anorthite     -1.142e+00      0.000e+00      0.000e+00   CaAl2Si2O8
     Chalcedony     -7.026e+00      0.000e+00      0.000e+00   SiO2
Montmorillonite     -8.028e+00      0.000e+00      0.000e+00   (HNaK)0.14Mg0.45Fe0.33Al1.47Si3.82O10(OH)2
Montmorillonite      1.104e+01      0.000e+00      0.000e+00   (HNaK)0.09Mg0.29Fe0.24Al1.57Si3.93O10(OH)2
      Kaolinite     -1.623e+00      0.000e+00      0.000e+00   Al2Si2O5(OH)4
      Sepiolite     -1.632e-01      0.000e+00      0.000e+00   Mg2Si3O7.5OH:3H2O

Redox mole transfers:    

Sum of residuals (epsilons in documentation):         1.385e+03
Sum of delta/uncertainty limit:                       8.714e+00
Maximum fractional error in element concentration:    5.000e-02

Model contains minimum number of phases.
===============================================================================


Solution 1: Inflow

                         Input          Delta    Input+Delta
             pH      8.100e+00  +   0.000e+00  =   8.100e+00
             Al      0.000e+00  +   0.000e+00  =   0.000e+00
     Alkalinity      6.070e-03  +   0.000e+00  =   6.070e-03
          C(-4)      0.000e+00  +   0.000e+00  =   0.000e+00
           C(4)      6.021e-03  +   0.000e+00  =   6.021e-03
             Ca      1.698e-03  +   0.000e+00  =   1.698e-03
             Cl      9.234e-03  +   0.000e+00  =   9.234e-03
          Fe(2)      0.000e+00  +   0.000e+00  =   0.000e+00
          Fe(3)      0.000e+00  +   0.000e+00  =   0.000e+00
           H(0)      0.000e+00  +   0.000e+00  =   0.000e+00
              K      4.350e-04  +   0.000e+00  =   4.350e-04
             Mg      1.730e-03  +   0.000e+00  =   1.730e-03
             Na      9.449e-03  +  -3.976e-05  =   9.409e-03
           O(0)      0.000e+00  +   0.000e+00  =   0.000e+00
          S(-2)      0.000e+00  +   0.000e+00  =   0.000e+00
           S(6)      6.980e-04  +   0.000e+00  =   6.980e-04
             Si      5.000e-04  +   0.000e+00  =   5.000e-04

Solution 2: Lake

                         Input          Delta    Input+Delta
             pH      7.500e+00  +   0.000e+00  =   7.500e+00
             Al      0.000e+00  +   0.000e+00  =   0.000e+00
     Alkalinity      6.620e-03  +   0.000e+00  =   6.620e-03
          C(-4)      0.000e+00  +   0.000e+00  =   0.000e+00
           C(4)      6.304e-03  +   0.000e+00  =   6.304e-03
             Ca      1.122e-02  +   0.000e+00  =   1.122e-02
             Cl      5.835e+00  +   1.281e-01  =   5.963e+00
          Fe(2)      0.000e+00  +   0.000e+00  =   0.000e+00
          Fe(3)      0.000e+00  +   0.000e+00  =   0.000e+00
           H(0)      0.000e+00  +   0.000e+00  =   0.000e+00
              K      1.665e-01  +   0.000e+00  =   1.665e-01
             Mg      4.919e-01  +  -2.460e-02  =   4.673e-01
             Na      5.429e+00  +   0.000e+00  =   5.429e+00
           O(0)      0.000e+00  +   0.000e+00  =   0.000e+00
          S(-2)      0.000e+00  +   0.000e+00  =   0.000e+00
           S(6)      2.914e-01  +   0.000e+00  =   2.914e-01
             Si      5.000e-04  +   0.000e+00  =   5.000e-04

Solution fractions:                   Minimum        Maximum
   Solution   1      7.751e+02      0.000e+00      0.000e+00
   Solution   2      1.000e+00      0.000e+00      0.000e+00

Phase mole transfers:                 Minimum        Maximum
         Halite     -1.195e+00      0.000e+00      0.000e+00   NaCl
      Aragonite     -1.305e+00      0.000e+00      0.000e+00   CaCO3
         CO2(g)     -3.356e+00      0.000e+00      0.000e+00   CO2
     Mirabilite     -2.496e-01      0.000e+00      0.000e+00   Na2SO4:10H2O
         H2O(g)     -4.297e+04      0.000e+00      0.000e+00   H2O
     Chalcedony     -9.286e+00      0.000e+00      0.000e+00   SiO2
Montmorillonite     -1.050e+01      0.000e+00      0.000e+00   (HNaK)0.14Mg0.45Fe0.33Al1.47Si3.82O10(OH)2
Montmorillonite      1.444e+01      0.000e+00      0.000e+00   (HNaK)0.09Mg0.29Fe0.24Al1.57Si3.93O10(OH)2
      Kaolinite     -3.618e+00      0.000e+00      0.000e+00   Al2Si2O5(OH)4
      Sepiolite     -1.676e-01      0.000e+00      0.000e+00   Mg2Si3O7.5OH:3H2O

Redox mole transfers:    

Sum of residuals (epsilons in documentation):         6.667e+01
Sum of delta/uncertainty limit:                       1.523e+00
Maximum fractional error in element concentration:    5.000e-02
===============================================================================


Solution 1: Inflow

                         Input          Delta    Input+Delta
             pH      8.100e+00  +   0.000e+00  =   8.100e+00
             Al      0.000e+00  +   0.000e+00  =   0.000e+00
     Alkalinity      6.070e-03  +   0.000e+00  =   6.070e-03
          C(-4)      0.000e+00  +   0.000e+00  =   0.000e+00
           C(4)      6.021e-03  +   0.000e+00  =   6.021e-03
             Ca      1.698e-03  +   0.000e+00  =   1.698e-03
             Cl      9.234e-03  +   0.000e+00  =   9.234e-03
          Fe(2)      0.000e+00  +   0.000e+00  =   0.000e+00
          Fe(3)      0.000e+00  +   0.000e+00  =   0.000e+00
           H(0)      0.000e+00  +   0.000e+00  =   0.000e+00
              K      4.350e-04  +   0.000e+00  =   4.350e-04
             Mg      1.730e-03  +   0.000e+00  =   1.730e-03
             Na      9.449e-03  +  -3.976e-05  =   9.409e-03
           O(0)      0.000e+00  +   0.000e+00  =   0.000e+00
          S(-2)      0.000e+00  +   0.000e+00  =   0.000e+00
           S(6)      6.980e-04  +   0.000e+00  =   6.980e-04
             Si      5.000e-04  +   0.000e+00  =   5.000e-04

Solution 2: Lake

                         Input          Delta    Input+Delta
             pH      7.500e+00  +   0.000e+00  =   7.500e+00
             Al      0.000e+00  +   0.000e+00  =   0.000e+00
     Alkalinity      6.620e-03  +   0.000e+00  =   6.620e-03
          C(-4)      0.000e+00  +   0.000e+00  =   0.000e+00
           C(4)      6.304e-03  +   0.000e+00  =   6.304e-03
             Ca      1.122e-02  +   0.000e+00  =   1.122e-02
             Cl      5.835e+00  +   1.281e-01  =   5.963e+00
          Fe(2)      0.000e+00  +   0.000e+00  =   0.000e+00
          Fe(3)      0.000e+00  +   0.000e+00  =   0.000e+00
           H(0)      0.000e+00  +   0.000e+00  =   0.000e+00
              K      1.665e-01  +   0.000e+00  =   1.665e-01
             Mg      4.919e-01  +  -2.460e-02  =   4.673e-01
             Na      5.429e+00  +   0.000e+00  =   5.429e+00
           O(0)      0.000e+00  +   0.000e+00  =   0.000e+00
          S(-2)      0.000e+00  +   0.000e+00  =   0.000e+00
           S(6)      2.914e-01  +   0.000e+00  =   2.914e-01
             Si      5.000e-04  +   0.000e+00  =   5.000e-04

Solution fractions:                   Minimum        Maximum
   Solution   1      7.751e+02      0.000e+00      0.000e+00
   Solution   2      1.000e+00      0.000e+00      0.000e+00

Phase mole transfers:                 Minimum        Maximum
         Halite     -1.195e+00      0.000e+00      0.000e+00   NaCl
         CO2(g)     -4.661e+00      0.000e+00      0.000e+00   CO2
     Mirabilite     -2.496e-01      0.000e+00      0.000e+00   Na2SO4:10H2O
         H2O(g)     -4.297e+04      0.000e+00      0.000e+00   H2O
      Anorthite     -1.305e+00      0.000e+00      0.000e+00   CaAl2Si2O8
     Chalcedony     -9.286e+00      0.000e+00      0.000e+00   SiO2
Montmorillonite     -1.050e+01      0.000e+00      0.000e+00   (HNaK)0.14Mg0.45Fe0.33Al1.47Si3.82O10(OH)2
Montmorillonite      1.444e+01      0.000e+00      0.000e+00   (HNaK)0.09Mg0.29Fe0.24Al1.57Si3.93O10(OH)2
      Kaolinite     -2.313e+00      0.000e+00      0.000e+00   Al2Si2O5(OH)4
      Sepiolite     -1.676e-01      0.000e+00      0.000e+00   Mg2Si3O7.5OH:3H2O

Redox mole transfers:    

Sum of residuals (epsilons in documentation):         6.667e+01
Sum of delta/uncertainty limit:                       1.523e+00
Maximum fractional error in element concentration:    5.000e-02
===============================================================================


Summary of inverse modeling:

	Number of models found: 9
	Number of minimal models found: 3
	Number of infeasible sets of phases saved: 25
	Number of calls to cl1: 46
------------------
End of simulation.
------------------

------------------------------------
Reading input data for simulation 3.
------------------------------------

	SOLUTION 1 
		units   mg/l
		temp	17
		pH 	7.6
		Ca	41
		Mg	13
		Na	3.8
		Alkalinity	178 as HCO3
		S(6)	19
	SOLUTION 2 
		units   mg/l
		temp	19
		pH 	8.4
		Ca	3
		Mg	1.9
		Na	140
		Alkalinity	367 as HCO3
		S(6)	13
	INVERSE_MODELING 1
		solutions 1 2
		uncertainty 0.03
		balances
		phases
			CH2O
			Calcite
			Goethite
			Pyrite
			CaX2
			MgX2
			NaX
			Gypsum
		multiple_precision
	PHASES
		Halite
		NaCl = Na+ + Cl-
		log_k	0.0
		Biotite
		KMg3AlSi3O10(OH)2 + 6H+ + 4H2O = K+ + 3Mg+2 + Al(OH)4- + 3H4SiO4 
		log_k	0.0
		Plagioclase
		Na0.62Ca0.37Al1.38Si2.625O8 + 5.5 H+ + 2.5H2O = 0.62Na+ + 0.37Ca+2 + 1.38Al+3 + 2.625H4SiO4
		log_k	0.0
		H2O(g)
		H2O = H2O
		log_k	0.0
		Brucite             19
		Mg(OH)2 + 2H+ = Mg+2 + 2H2O 
		log_k		16.84	
		delta_h	-27.1 kcal
		Sylvite
		KCl = K+ + Cl-
		log_k	0.0
		NaX
		NaX = Na+ + X- 
		log_k	0.0
		CaX2
		CaX2 = Ca+2 + 2X- 
		log_k	0.0
		MgX2
		MgX2 = Mg+2 + 2X- 
		log_k	0.0
		HX
		HX = H+ + X-
		log_k	0.0
		KX
		KX = K+ + X-
		log_k	0.0
		Mirabilite
		Na2SO4:10H2O = 2Na+ + SO4-2 + 10H2O
		log_k	0.0
		Montmorillonite-Aberdeen        116
		(HNaK)0.14Mg0.45Fe0.33Al1.47Si3.82O10(OH)2 + 9.16H2O + 0.84H+ = 0.14H+ + 0.14Na+ + 0.14K+ + 0.45Mg+2 + 0.33Fe+3 + 1.47Al(OH)4- + 3.82H4SiO4
		log_k	-29.688
		Montmorillonite-BelleFourche    115
		(HNaK)0.09Mg0.29Fe0.24Al1.57Si3.93O10(OH)2 + 10H2O = 0.09H+ + 0.09Na+ + 0.09K+ + 0.29Mg+2 + 0.24Fe+3 + 1.57Al(OH)4- + 3.93H4SiO4
		log_k	-34.913
		CH2O
		CH2O + H2O = CO2 + 4H+ + 4e-
		log_k	0.0
	END
-------------------------------------------
Beginning of initial solution calculations.
-------------------------------------------

Initial solution 1.	

-----------------------------Solution composition------------------------------

	Elements           Molality       Moles

	Alkalinity        2.918e-03   2.918e-03
	Ca                1.023e-03   1.023e-03
	Mg                5.349e-04   5.349e-04
	Na                1.653e-04   1.653e-04
	S(6)              1.978e-04   1.978e-04

----------------------------Description of solution----------------------------

                                       pH  =   7.600    
                                       pe  =   4.000    
       Specific Conductance (uS/cm, 17 oC) = 253
                          Density (g/cm3)  =   0.99899
                        Activity of water  =   1.000
                           Ionic strength  =   4.868e-03
                       Mass of water (kg)  =   1.000e+00
                    Total carbon (mol/kg)  =   3.075e-03
                       Total CO2 (mol/kg)  =   3.075e-03
                      Temperature (deg C)  =  17.00
                  Electrical balance (eq)  =  -3.207e-05
 Percent error, 100*(Cat-|An|)/(Cat+|An|)  =  -0.50
                               Iterations  =   7
                                  Total H  = 1.110153e+02
                                  Total O  = 5.551606e+01

----------------------------Distribution of species----------------------------

                                               Log       Log       Log    mole V
   Species          Molality    Activity  Molality  Activity     Gamma   cm3/mol

   OH-             2.259e-07   2.096e-07    -6.646    -6.679    -0.033     -4.52
   H+              2.686e-08   2.512e-08    -7.571    -7.600    -0.029      0.00
   H2O             5.551e+01   9.999e-01     1.744    -0.000     0.000     18.04
C(4)          3.075e-03
   HCO3-           2.859e-03   2.660e-03    -2.544    -2.575    -0.031     24.03
   CO2             1.689e-04   1.691e-04    -3.772    -3.772     0.000     32.65
   CaHCO3+         2.316e-05   2.155e-05    -4.635    -4.666    -0.031      9.36
   MgHCO3+         1.252e-05   1.163e-05    -4.902    -4.934    -0.032      5.25
   CO3-2           5.539e-06   4.153e-06    -5.257    -5.382    -0.125     -4.86
   CaCO3           4.467e-06   4.472e-06    -5.350    -5.349     0.000    -14.63
   MgCO3           1.347e-06   1.348e-06    -5.871    -5.870     0.000    -17.08
   NaHCO3          6.442e-07   6.449e-07    -6.191    -6.190     0.000     27.71
   NaCO3-          8.413e-09   7.814e-09    -8.075    -8.107    -0.032     -3.26
Ca            1.023e-03
   Ca+2            9.798e-04   7.343e-04    -3.009    -3.134    -0.125    -18.59
   CaHCO3+         2.316e-05   2.155e-05    -4.635    -4.666    -0.031      9.36
   CaSO4           1.582e-05   1.584e-05    -4.801    -4.800     0.000      7.16
   CaCO3           4.467e-06   4.472e-06    -5.350    -5.349     0.000    -14.63
   CaOH+           5.223e-09   4.851e-09    -8.282    -8.314    -0.032     (0)  
   CaHSO4+         2.529e-12   2.349e-12   -11.597   -11.629    -0.032     (0)  
H(0)          9.685e-27
   H2              4.842e-27   4.848e-27   -26.315   -26.314     0.000     28.62
Mg            5.349e-04
   Mg+2            5.116e-04   3.847e-04    -3.291    -3.415    -0.124    -21.27
   MgHCO3+         1.252e-05   1.163e-05    -4.902    -4.934    -0.032      5.25
   MgSO4           9.401e-06   9.412e-06    -5.027    -5.026     0.000      5.50
   MgCO3           1.347e-06   1.348e-06    -5.871    -5.870     0.000    -17.08
   MgOH+           2.849e-08   2.646e-08    -7.545    -7.577    -0.032     (0)  
Na            1.653e-04
   Na+             1.646e-04   1.530e-04    -3.784    -3.815    -0.032     -1.60
   NaHCO3          6.442e-07   6.449e-07    -6.191    -6.190     0.000     27.71
   NaSO4-          1.011e-07   9.386e-08    -6.995    -7.028    -0.032     16.61
   NaCO3-          8.413e-09   7.814e-09    -8.075    -8.107    -0.032     -3.26
   NaOH            3.202e-21   3.206e-21   -20.495   -20.494     0.000     (0)  
O(0)          0.000e+00
   O2              0.000e+00   0.000e+00   -42.405   -42.404     0.000     29.71
S(6)          1.978e-04
   SO4-2           1.725e-04   1.290e-04    -3.763    -3.889    -0.126     13.96
   CaSO4           1.582e-05   1.584e-05    -4.801    -4.800     0.000      7.16
   MgSO4           9.401e-06   9.412e-06    -5.027    -5.026     0.000      5.50
   NaSO4-          1.011e-07   9.386e-08    -6.995    -7.028    -0.032     16.61
   HSO4-           2.865e-10   2.661e-10    -9.543    -9.575    -0.032     34.57
   CaHSO4+         2.529e-12   2.349e-12   -11.597   -11.629    -0.032     (0)  

------------------------------Saturation indices-------------------------------

	Phase               SI   log IAP   log K(290 K,   1 atm)

	Anhydrite        -2.90     -7.02   -4.13  CaSO4
	Aragonite        -0.23     -8.52   -8.29  CaCO3
	Brucite          -5.60     11.78   17.39  Mg(OH)2
	Calcite          -0.08     -8.52   -8.44  CaCO3
	CH2O            -50.17    -50.17    0.00  CH2O
	CO2(g)           -2.41     -3.77   -1.36  CO2
	Dolomite         -0.41    -17.31  -16.90  CaMg(CO3)2
	Gypsum           -2.44     -7.02   -4.58  CaSO4:2H2O
	H2(g)           -23.24    -26.31   -3.08  H2
	H2O(g)           -0.00     -0.00    0.00  H2O
	Mirabilite      -11.52    -11.52    0.00  Na2SO4:10H2O
	O2(g)           -39.57    -42.40   -2.83  O2


Initial solution 2.	

-----------------------------Solution composition------------------------------

	Elements           Molality       Moles

	Alkalinity        6.018e-03   6.018e-03
	Ca                7.489e-05   7.489e-05
	Mg                7.819e-05   7.819e-05
	Na                6.093e-03   6.093e-03
	S(6)              1.354e-04   1.354e-04

----------------------------Description of solution----------------------------

                                       pH  =   8.400    
                                       pe  =   4.000    
       Specific Conductance (uS/cm, 19 oC) = 497
                          Density (g/cm3)  =   0.99879
                        Activity of water  =   1.000
                           Ionic strength  =   6.618e-03
                       Mass of water (kg)  =   1.000e+00
                    Total carbon (mol/kg)  =   5.980e-03
                       Total CO2 (mol/kg)  =   5.980e-03
                      Temperature (deg C)  =  19.00
                  Electrical balance (eq)  =   1.106e-04
 Percent error, 100*(Cat-|An|)/(Cat+|An|)  =   0.88
                               Iterations  =   7
                                  Total H  = 1.110183e+02
[...]
	Siderite         -0.86    -11.66  -10.79  FeCO3
	Sylvite          -9.47     -9.47    0.00  KCl


Initial solution 2.	Mysse

-----------------------------Solution composition------------------------------

	Elements           Molality       Moles

	C(4)              6.870e-03   6.870e-03
	Ca                1.128e-02   1.128e-02
	Cl                1.785e-02   1.785e-02
	Fe(2)             4.000e-07   4.000e-07
	K                 2.540e-03   2.540e-03
	Mg                4.540e-03   4.540e-03
	Na                3.189e-02   3.189e-02
	S(-2)             2.590e-04   2.590e-04
	S(6)              1.986e-02   1.986e-02
	Z                 2.330e-03   2.330e-03

----------------------------Description of solution----------------------------

                                       pH  =   6.610    
                                       pe  =   0.000    
       Specific Conductance (uS/cm, 63 oC) = 10096
                          Density (g/cm3)  =   0.98527
                        Activity of water  =   0.998
                           Ionic strength  =   7.404e-02
                       Mass of water (kg)  =   1.000e+00
                 Total alkalinity (eq/kg)  =   5.254e-03
                       Total CO2 (mol/kg)  =   6.870e-03
                      Temperature (deg C)  =  63.00
                  Electrical balance (eq)  =   3.246e-03
 Percent error, 100*(Cat-|An|)/(Cat+|An|)  =   3.16
                               Iterations  =   8
                                  Total H  = 1.110179e+02
                                  Total O  = 5.560448e+01

---------------------------------Redox couples---------------------------------

	Redox couple             pe  Eh (volts)

	S(-2)/S(6)          -3.6473     -0.2433

----------------------------Distribution of species----------------------------

                                               Log       Log       Log    mole V
   Species          Molality    Activity  Molality  Activity     Gamma   cm3/mol

   OH-             5.983e-07   4.608e-07    -6.223    -6.336    -0.113     -3.51
   H+              2.966e-07   2.455e-07    -6.528    -6.610    -0.082      0.00
   H2O             5.551e+01   9.985e-01     1.744    -0.001     0.000     18.35
C(4)          6.870e-03
   HCO3-           4.732e-03   3.757e-03    -2.325    -2.425    -0.100     25.46
   CO2             1.788e-03   1.819e-03    -2.748    -2.740     0.007     23.72
   CaHCO3+         2.468e-04   1.960e-04    -3.608    -3.708    -0.100     10.78
   MgHCO3+         6.517e-05   5.114e-05    -4.186    -4.291    -0.105      6.20
   CaCO3           1.637e-05   1.666e-05    -4.786    -4.778     0.007    -14.51
   NaHCO3          1.359e-05   1.382e-05    -4.867    -4.859     0.007     33.01
   NaCO3-          3.523e-06   2.764e-06    -5.453    -5.558    -0.105     -0.91
   CO3-2           2.805e-06   1.115e-06    -5.552    -5.953    -0.401     -2.24
   MgCO3           1.624e-06   1.652e-06    -5.789    -5.782     0.007    -17.09
   FeHCO3+         1.187e-08   9.312e-09    -7.926    -8.031    -0.105     (0)  
   FeCO3           6.517e-10   6.629e-10    -9.186    -9.179     0.007     (0)  
Ca            1.128e-02
   Ca+2            7.602e-03   3.036e-03    -2.119    -2.518    -0.399    -17.00
   CaSO4           3.415e-03   3.474e-03    -2.467    -2.459     0.007      8.42
   CaHCO3+         2.468e-04   1.960e-04    -3.608    -3.708    -0.100     10.78
   CaCO3           1.637e-05   1.666e-05    -4.786    -4.778     0.007    -14.51
   CaHSO4+         1.416e-08   1.111e-08    -7.849    -7.954    -0.105     (0)  
   CaOH+           2.612e-09   2.049e-09    -8.583    -8.688    -0.105     (0)  
Cl            1.785e-02
   Cl-             1.785e-02   1.378e-02    -1.748    -1.861    -0.112     18.29
   FeCl+           6.011e-10   4.716e-10    -9.221    -9.326    -0.105     (0)  
Fe(2)         4.000e-07
   Fe(HS)2         2.814e-07   2.862e-07    -6.551    -6.543     0.007     (0)  
   Fe+2            6.037e-08   2.479e-08    -7.219    -7.606    -0.387    -22.16
   FeSO4           4.010e-08   4.079e-08    -7.397    -7.389     0.007     (0)  
   FeHCO3+         1.187e-08   9.312e-09    -7.926    -8.031    -0.105     (0)  
   Fe(HS)3-        4.521e-09   3.548e-09    -8.345    -8.450    -0.105     (0)  
   FeCO3           6.517e-10   6.629e-10    -9.186    -9.179     0.007     (0)  
   FeCl+           6.011e-10   4.716e-10    -9.221    -9.326    -0.105     (0)  
   FeOH+           5.042e-10   3.956e-10    -9.297    -9.403    -0.105     (0)  
   FeHSO4+         1.156e-13   9.071e-14   -12.937   -13.042    -0.105     (0)  
H(0)          5.996e-17
   H2              2.998e-17   3.050e-17   -16.523   -16.516     0.007     28.58
K             2.540e-03
   K+              2.391e-03   1.847e-03    -2.621    -2.734    -0.112      9.94
   KSO4-           1.488e-04   1.167e-04    -3.827    -3.933    -0.105     (0)  
   KOH             2.560e-11   2.604e-11   -10.592   -10.584     0.007     (0)  
Mg            4.540e-03
   MgSO4           2.377e-03   2.418e-03    -2.624    -2.617     0.007      6.77
   Mg+2            2.096e-03   8.665e-04    -2.679    -3.062    -0.384    -22.42
   MgHCO3+         6.517e-05   5.114e-05    -4.186    -4.291    -0.105      6.20
   MgCO3           1.624e-06   1.652e-06    -5.789    -5.782     0.007    -17.09
   MgOH+           3.421e-07   2.685e-07    -6.466    -6.571    -0.105     (0)  
Na            3.189e-02
   Na+             3.091e-02   2.433e-02    -1.510    -1.614    -0.104      0.15
   NaSO4-          9.615e-04   7.544e-04    -3.017    -3.122    -0.105     17.48
   NaHCO3          1.359e-05   1.382e-05    -4.867    -4.859     0.007     33.01
   NaCO3-          3.523e-06   2.764e-06    -5.453    -5.558    -0.105     -0.91
   NaOH            1.102e-18   1.121e-18   -17.958   -17.950     0.007     (0)  
O(0)          0.000e+00
   O2              0.000e+00   0.000e+00   -48.480   -48.473     0.007     32.51
S(-2)         2.590e-04
   HS-             1.478e-04   1.138e-04    -3.830    -3.944    -0.113     21.38
   H2S             1.106e-04   1.126e-04    -3.956    -3.949     0.007     37.26
   Fe(HS)2         2.814e-07   2.862e-07    -6.551    -6.543     0.007     (0)  
   Fe(HS)3-        4.521e-09   3.548e-09    -8.345    -8.450    -0.105     (0)  
   S-2             1.451e-09   5.634e-10    -8.838    -9.249    -0.411     (0)  
S(6)          1.986e-02
   SO4-2           1.296e-02   4.997e-03    -1.888    -2.301    -0.414     16.37
   CaSO4           3.415e-03   3.474e-03    -2.467    -2.459     0.007      8.42
   MgSO4           2.377e-03   2.418e-03    -2.624    -2.617     0.007      6.77
   NaSO4-          9.615e-04   7.544e-04    -3.017    -3.122    -0.105     17.48
   KSO4-           1.488e-04   1.167e-04    -3.827    -3.933    -0.105     (0)  
   HSO4-           3.879e-07   3.044e-07    -6.411    -6.517    -0.105     36.60
   FeSO4           4.010e-08   4.079e-08    -7.397    -7.389     0.007     (0)  
   CaHSO4+         1.416e-08   1.111e-08    -7.849    -7.954    -0.105     (0)  
   FeHSO4+         1.156e-13   9.071e-14   -12.937   -13.042    -0.105     (0)  
Z             2.330e-03
   Z               2.330e-03   2.370e-03    -2.633    -2.625     0.007     (0)  

------------------------------Saturation indices-------------------------------

	Phase               SI   log IAP   log K(336 K,   1 atm)

	Anhydrite        -5.13     -5.13    0.00  CaSO4Z0.120
	Anhydrite1       -5.11     -5.11    0.00  CaSO4Z0.110
	Aragonite         0.20     -8.47   -8.67  CaCO3
	Brucite          -4.44     10.16   14.59  Mg(OH)2
	Calcite           0.32     -8.47   -8.79  CaCO3
	CH2O            -29.18    -29.18    0.00  CH2O
	CO2(g)           -0.95     -2.74   -1.79  CO2
	Dolomite          0.39    -17.49  -17.87  CaMg(CO3)2
	FeS(ppt)         -1.02     -4.94   -3.92  FeS
	Gypsum           -0.16     -4.82   -4.67  CaSO4:2H2O
	H2(g)           -13.38    -16.52   -3.14  H2
	H2O(g)           -0.00     -0.00    0.00  H2O
	H2S(g)           -2.62    -10.55   -7.94  H2S
	Halite           -3.47     -3.47    0.00  NaCl
	Mackinawite      -0.29     -4.94   -4.65  FeS
	Melanterite      -8.06     -9.91   -1.85  FeSO4:7H2O
	Mirabilite       -5.54     -5.54    0.00  Na2SO4:10H2O
	O2(g)           -45.40    -48.47   -3.07  O2
	Pyrite           -2.68     -2.68    0.00  FeS2Z0.156
	Siderite         -2.46    -13.56  -11.10  FeCO3
	Sulfur            5.18      9.27    4.09  S
	Sylvite          -4.59     -4.59    0.00  KCl


---------------------------------------------
Beginning of inverse modeling 1 calculations.
---------------------------------------------

Using Cl1MP multiprecision optimization routine.

Solution 1: Recharge number 3

                         Input          Delta    Input+Delta
             pH      7.550e+00  +   0.000e+00  =   7.550e+00
     Alkalinity      4.016e-03  +   0.000e+00  =   4.016e-03
          C(-4)      0.000e+00  +   0.000e+00  =   0.000e+00
           C(4)      4.300e-03  +   0.000e+00  =   4.300e-03
             Ca      1.200e-03  +  -5.305e-05  =   1.147e-03
             Cl      2.000e-05  +   0.000e+00  =   2.000e-05
          Fe(2)      1.000e-06  +   0.000e+00  =   1.000e-06
          Fe(3)      0.000e+00  +   0.000e+00  =   0.000e+00
           H(0)      0.000e+00  +   0.000e+00  =   0.000e+00
              K      2.000e-05  +   0.000e+00  =   2.000e-05
             Mg      1.010e-03  +   0.000e+00  =   1.010e-03
             Na      2.000e-05  +   0.000e+00  =   2.000e-05
           O(0)      0.000e+00  +   0.000e+00  =   0.000e+00
          S(-2)      0.000e+00  +   0.000e+00  =   0.000e+00
           S(6)      1.600e-04  +   0.000e+00  =   1.600e-04
              X      0.000e+00  +   0.000e+00  =   0.000e+00
              Z      1.760e-05  +   0.000e+00  =   1.760e-05

Solution 2: Mysse

                         Input          Delta    Input+Delta
             pH      6.610e+00  +   0.000e+00  =   6.610e+00
     Alkalinity      5.254e-03  +   0.000e+00  =   5.254e-03
          C(-4)      0.000e+00  +   0.000e+00  =   0.000e+00
           C(4)      6.870e-03  +   0.000e+00  =   6.870e-03
             Ca      1.128e-02  +   0.000e+00  =   1.128e-02
             Cl      1.785e-02  +   0.000e+00  =   1.785e-02
          Fe(2)      4.000e-07  +   0.000e+00  =   4.000e-07
          Fe(3)      0.000e+00  +   0.000e+00  =   0.000e+00
           H(0)      0.000e+00  +   0.000e+00  =   0.000e+00
              K      2.540e-03  +   0.000e+00  =   2.540e-03
             Mg      4.540e-03  +   0.000e+00  =   4.540e-03
             Na      3.189e-02  +  -3.189e-03  =   2.870e-02
           O(0)      0.000e+00  +   0.000e+00  =   0.000e+00
          S(-2)      2.590e-04  +   0.000e+00  =   2.590e-04
           S(6)      1.986e-02  +   2.868e-05  =   1.989e-02
              X      0.000e+00  +   0.000e+00  =   0.000e+00
              Z      2.330e-03  +   0.000e+00  =   2.330e-03

Solution fractions:                   Minimum        Maximum
   Solution   1      9.999e-01      9.999e-01      1.000e+00
   Solution   2      1.000e+00      1.000e+00      1.000e+00

Phase mole transfers:                 Minimum        Maximum
        Calcite     -1.167e-02     -1.497e-02     -8.887e-03   CaCO3
       Dolomite      3.530e-03      3.434e-03      3.626e-03   CaMg(CO3)2
           CH2O      7.177e-03      4.602e-03      1.012e-02   CH2O
       Goethite      1.775e-03      1.086e-03      2.563e-03   FeOOH
         Pyrite     -1.776e-03     -2.562e-03     -1.088e-03   FeS2Z0.156
     Anhydrite1      2.354e-02      2.234e-02      2.487e-02   CaSO4Z0.110
             HX     -2.833e-03     -6.035e-03     -4.736e-05   HX
           CaX2     -5.269e-03     -6.965e-03     -3.564e-03   CaX2
            NaX      1.337e-02      1.316e-02      1.408e-02   NaX
         Halite      1.531e-02      1.510e-02      1.552e-02   NaCl
        Sylvite      2.520e-03      2.494e-03      2.546e-03   KCl

Redox mole transfers:    
          Fe(3)      1.775e-03
          S(-2)     -3.811e-03

Sum of residuals (epsilons in documentation):         2.028e+00
Sum of delta/uncertainty limit:                       2.029e+00
Maximum fractional error in element concentration:    1.000e-01

Model contains minimum number of phases.
===============================================================================


Solution 1: Recharge number 3

                         Input          Delta    Input+Delta
             pH      7.550e+00  +   0.000e+00  =   7.550e+00
     Alkalinity      4.016e-03  +   0.000e+00  =   4.016e-03
          C(-4)      0.000e+00  +   0.000e+00  =   0.000e+00
           C(4)      4.300e-03  +   0.000e+00  =   4.300e-03
             Ca      1.200e-03  +  -5.305e-05  =   1.147e-03
             Cl      2.000e-05  +   0.000e+00  =   2.000e-05
          Fe(2)      1.000e-06  +   0.000e+00  =   1.000e-06
          Fe(3)      0.000e+00  +   0.000e+00  =   0.000e+00
           H(0)      0.000e+00  +   0.000e+00  =   0.000e+00
              K      2.000e-05  +   0.000e+00  =   2.000e-05
             Mg      1.010e-03  +   0.000e+00  =   1.010e-03
             Na      2.000e-05  +   0.000e+00  =   2.000e-05
           O(0)      0.000e+00  +   0.000e+00  =   0.000e+00
          S(-2)      0.000e+00  +   0.000e+00  =   0.000e+00
           S(6)      1.600e-04  +   0.000e+00  =   1.600e-04
              X      0.000e+00  +   0.000e+00  =   0.000e+00
              Z      1.760e-05  +   0.000e+00  =   1.760e-05

Solution 2: Mysse

                         Input          Delta    Input+Delta
             pH      6.610e+00  +   0.000e+00  =   6.610e+00
     Alkalinity      5.254e-03  +   0.000e+00  =   5.254e-03
          C(-4)      0.000e+00  +   0.000e+00  =   0.000e+00
           C(4)      6.870e-03  +   0.000e+00  =   6.870e-03
             Ca      1.128e-02  +   0.000e+00  =   1.128e-02
             Cl      1.785e-02  +   0.000e+00  =   1.785e-02
          Fe(2)      4.000e-07  +   0.000e+00  =   4.000e-07
          Fe(3)      0.000e+00  +   0.000e+00  =   0.000e+00
           H(0)      0.000e+00  +   0.000e+00  =   0.000e+00
              K      2.540e-03  +   0.000e+00  =   2.540e-03
             Mg      4.540e-03  +   0.000e+00  =   4.540e-03
             Na      3.189e-02  +  -3.189e-03  =   2.870e-02
           O(0)      0.000e+00  +   0.000e+00  =   0.000e+00
          S(-2)      2.590e-04  +   0.000e+00  =   2.590e-04
           S(6)      1.986e-02  +   2.868e-05  =   1.989e-02
              X      0.000e+00  +   0.000e+00  =   0.000e+00
              Z      2.330e-03  +   0.000e+00  =   2.330e-03

Solution fractions:                   Minimum        Maximum
   Solution   1      1.000e+00      1.000e+00      1.000e+00
   Solution   2      1.000e+00      1.000e+00      1.000e+00

Phase mole transfers:                 Minimum        Maximum
        Calcite     -8.632e-03     -9.023e-03     -8.236e-03   CaCO3
       Dolomite      3.530e-03      3.434e-03      3.626e-03   CaMg(CO3)2
           CH2O      4.142e-03      3.654e-03      4.592e-03   CH2O
       Goethite      9.659e-04      8.331e-04      1.088e-03   FeOOH
         Pyrite     -9.665e-04     -1.088e-03     -8.351e-04   FeS2Z0.156
      Anhydrite      5.180e-03      8.661e-05      1.104e-02   CaSO4Z0.120
     Anhydrite1      1.674e-02      1.039e-02      2.223e-02   CaSO4Z0.110
           CaX2     -6.686e-03     -7.042e-03     -6.582e-03   CaX2
            NaX      1.337e-02      1.316e-02      1.408e-02   NaX
         Halite      1.531e-02      1.510e-02      1.552e-02   NaCl
        Sylvite      2.520e-03      2.494e-03      2.546e-03   KCl

Redox mole transfers:    
          Fe(3)      9.659e-04
          S(-2)     -2.192e-03

Sum of residuals (epsilons in documentation):         2.029e+00
Sum of delta/uncertainty limit:                       2.029e+00
Maximum fractional error in element concentration:    1.000e-01

Model contains minimum number of phases.
===============================================================================


Solution 1: Recharge number 3

                         Input          Delta    Input+Delta
             pH      7.550e+00  +   0.000e+00  =   7.550e+00
     Alkalinity      4.016e-03  +   0.000e+00  =   4.016e-03
          C(-4)      0.000e+00  +   0.000e+00  =   0.000e+00
           C(4)      4.300e-03  +   0.000e+00  =   4.300e-03
             Ca      1.200e-03  +  -5.245e-05  =   1.148e-03
             Cl      2.000e-05  +   0.000e+00  =   2.000e-05
          Fe(2)      1.000e-06  +  -6.000e-07  =   4.000e-07
          Fe(3)      0.000e+00  +   0.000e+00  =   0.000e+00
           H(0)      0.000e+00  +   0.000e+00  =   0.000e+00
              K      2.000e-05  +   0.000e+00  =   2.000e-05
             Mg      1.010e-03  +   0.000e+00  =   1.010e-03
             Na      2.000e-05  +   0.000e+00  =   2.000e-05
           O(0)      0.000e+00  +   0.000e+00  =   0.000e+00
          S(-2)      0.000e+00  +   0.000e+00  =   0.000e+00
           S(6)      1.600e-04  +   0.000e+00  =   1.600e-04
              X      0.000e+00  +   0.000e+00  =   0.000e+00
              Z      1.760e-05  +   0.000e+00  =   1.760e-05

Solution 2: Mysse

                         Input          Delta    Input+Delta
             pH      6.610e+00  +   0.000e+00  =   6.610e+00
     Alkalinity      5.254e-03  +   0.000e+00  =   5.254e-03
          C(-4)      0.000e+00  +   0.000e+00  =   0.000e+00
           C(4)      6.870e-03  +   0.000e+00  =   6.870e-03
             Ca      1.128e-02  +   0.000e+00  =   1.128e-02
             Cl      1.785e-02  +   0.000e+00  =   1.785e-02
          Fe(2)      4.000e-07  +   0.000e+00  =   4.000e-07
          Fe(3)      0.000e+00  +   0.000e+00  =   0.000e+00
           H(0)      0.000e+00  +   0.000e+00  =   0.000e+00
              K      2.540e-03  +   0.000e+00  =   2.540e-03
             Mg      4.540e-03  +   0.000e+00  =   4.540e-03
             Na      3.189e-02  +  -3.189e-03  =   2.870e-02
           O(0)      0.000e+00  +   0.000e+00  =   0.000e+00
          S(-2)      2.590e-04  +   0.000e+00  =   2.590e-04
           S(6)      1.986e-02  +   2.868e-05  =   1.989e-02
              X      0.000e+00  +   0.000e+00  =   0.000e+00
              Z      2.330e-03  +   0.000e+00  =   2.330e-03

Solution fractions:                   Minimum        Maximum
   Solution   1      1.000e+00      1.000e+00      1.000e+00
   Solution   2      1.000e+00      1.000e+00      1.000e+00

Phase mole transfers:                 Minimum        Maximum
        Calcite     -5.008e-03     -5.465e-03     -4.763e-03   CaCO3
       Dolomite      3.530e-03      3.434e-03      3.626e-03   CaMg(CO3)2
           CH2O      5.180e-04      5.128e-04      5.232e-04   CH2O
      Anhydrite      1.137e-02      6.962e-03      1.640e-02   CaSO4Z0.120
     Anhydrite1      8.622e-03      3.350e-03      1.321e-02   CaSO4Z0.110
             HX      3.383e-03      2.926e-03      3.805e-03   HX
           CaX2     -8.377e-03     -8.892e-03     -8.045e-03   CaX2
            NaX      1.337e-02      1.316e-02      1.408e-02   NaX
         Halite      1.531e-02      1.510e-02      1.552e-02   NaCl
        Sylvite      2.520e-03      2.494e-03      2.546e-03   KCl

Redox mole transfers:    
          S(-2)     -2.590e-04

Sum of residuals (epsilons in documentation):         2.619e+00
Sum of delta/uncertainty limit:                       2.619e+00
Maximum fractional error in element concentration:    6.000e-01

Model contains minimum number of phases.
===============================================================================


Summary of inverse modeling:

	Number of models found: 3
	Number of minimal models found: 3
	Number of infeasible sets of phases saved: 31
	Number of calls to cl1: 110
------------------
End of simulation.
------------------

------------------------------------
Reading input data for simulation 6.
------------------------------------

-------------------------------
End of Run after 10.44 Seconds.
-------------------------------

