WARNING: Database file from DATABASE keyword is used; command line argument ignored.
   Input file: opa_col2
  Output file: opa_col2.out
Database file: ../database/phreeqc.dat

------------------
Reading data base.
------------------

	SOLUTION_MASTER_SPECIES
	SOLUTION_SPECIES
	PHASES
	EXCHANGE_MASTER_SPECIES
	EXCHANGE_SPECIES
	SURFACE_MASTER_SPECIES
	SURFACE_SPECIES
	CALCULATE_VALUES
	RATES
	END
------------------------------------
Reading input data for simulation 1.
------------------------------------

	DATABASE ../database/phreeqc.dat
	SELECTED_OUTPUT 101
	    file                 opa_col2_101.sel
	USER_PUNCH 101
	    headings Mu SC
	    start
	10 PUNCH STR_F$(MU, 20, 12)
	20 PUNCH STR_F$(SC, 20, 10)
	    end
	SOLUTION_MASTER_SPECIES
	 Hto Hto 0 Hto 1
	 Nat Nat+ 0 Nat 23
	 I I- 0 I 126.9
	SOLUTION_SPECIES                                                        
	 Hto = Hto
	     log_k 0
	  Dw 2.24e-9
	 gamma 1e20 0
	 Nat+ = Nat+
	   log_k 0
	  Dw 1.33e-9
	 gamma 1e20 0
	 I- = I-
	       log_k 0
	  Dw 2.0e-9
	 gamma 1e20 0
	SOLUTION 0-3
	 pH 7.09
	 Na 239
	        K 1.54
	         Mg 17.2
	        Ca 25.9
	        Sr 0.500
	 Alkalinity 2.5
	 S(6) 12.6
	     Cl 304 charge
	 Hto 1e-3
	      Nat 1e-3
	       I 1e-3
	 water 0.5
	SOLUTION 4-23
	 pH 7.09
	 Na 239
	        K 1.54
	         Mg 17.2
	        Ca 25.9
	        Sr 0.500
	 Alkalinity 2.5
	 S(6) 12.6
	     Cl 304 charge
	 water 0.117809725                                     
	KINETICS 3-23
	END                                             
-------------------------------------------
Beginning of initial solution calculations.
-------------------------------------------

Initial solution 0.	

-----------------------------Solution composition------------------------------

	Elements           Molality       Moles

	Alkalinity        2.500e-03   1.250e-03
	Ca                2.590e-02   1.295e-02
	Cl                3.000e-01   1.500e-01  Charge balance
	Hto               1.000e-06   5.000e-07
	I                 1.000e-06   5.000e-07
	K                 1.540e-03   7.700e-04
	Mg                1.720e-02   8.600e-03
	Na                2.390e-01   1.195e-01
	Nat               1.000e-06   5.000e-07
	S(6)              1.260e-02   6.300e-03
	Sr                5.000e-04   2.500e-04

----------------------------Description of solution----------------------------

                                       pH  =   7.090    
                                       pe  =   4.000    
      Specific Conductance (µS/cm,  25°C)  = 30189
                          Density (g/cm³)  =   1.01109
                               Volume (L)  =   0.50394
                        Viscosity (mPa s)  =   0.92720
                        Activity of water  =   0.990
                 Ionic strength (mol/kgw)  =   3.630e-01
                       Mass of water (kg)  =   5.000e-01
                    Total carbon (mol/kg)  =   2.732e-03
                       Total CO2 (mol/kg)  =   2.732e-03
                         Temperature (°C)  =  25.00
                  Electrical balance (eq)  =  -1.132e-14
 Percent error, 100*(Cat-|An|)/(Cat+|An|)  =  -0.00
                               Iterations  =   8
                                  Total H  = 5.550745e+01
                                  Total O  = 2.778228e+01

----------------------------Distribution of species----------------------------

                                               Log       Log       Log    mole V
   Species          Molality    Activity  Molality  Activity     Gamma   cm³/mol

   OH-             1.872e-07   1.233e-07    -6.728    -6.909    -0.182     -3.17
   H+              1.048e-07   8.128e-08    -6.980    -7.090    -0.110      0.00
   H2O             5.551e+01   9.899e-01     1.744    -0.004     0.000     18.07
C(4)          2.732e-03
   HCO3-           1.999e-03   1.420e-03    -2.699    -2.848    -0.149     25.45
   CO2             2.481e-04   2.622e-04    -3.605    -3.581     0.024     34.43
   NaHCO3          1.774e-04   2.097e-04    -3.751    -3.678     0.073     31.73
   CaHCO3+         1.690e-04   1.223e-04    -3.772    -3.913    -0.140      9.92
   MgHCO3+         1.186e-04   7.988e-05    -3.926    -4.098    -0.172      5.77
   CaCO3           8.545e-06   9.290e-06    -5.068    -5.032     0.036    -14.60
   SrHCO3+         3.957e-06   2.811e-06    -5.403    -5.551    -0.149     (0)  
   MgCO3           3.457e-06   3.759e-06    -5.461    -5.425     0.036    -17.09
   CO3-2           3.219e-06   8.195e-07    -5.492    -6.086    -0.594     -1.53
   KHCO3           6.366e-07   6.416e-07    -6.196    -6.193     0.003     41.03
   SrCO3           6.225e-08   6.767e-08    -7.206    -7.170     0.036    -14.13
   (CO2)2          1.161e-09   1.262e-09    -8.935    -8.899     0.036     68.87
Ca            2.590e-02
   Ca+2            2.439e-02   6.749e-03    -1.613    -2.171    -0.558    -16.98
   CaSO4           1.337e-03   1.454e-03    -2.874    -2.838     0.036      7.50
   CaHCO3+         1.690e-04   1.223e-04    -3.772    -3.913    -0.140      9.92
   CaCO3           8.545e-06   9.290e-06    -5.068    -5.032     0.036    -14.60
   CaOH+           1.867e-08   1.364e-08    -7.729    -7.865    -0.136     (0)  
   CaHSO4+         1.063e-09   7.766e-10    -8.974    -9.110    -0.136     (0)  
Cl            3.000e-01
   Cl-             3.000e-01   2.016e-01    -0.523    -0.695    -0.173     18.60
   HCl             3.955e-09   5.645e-09    -8.403    -8.248     0.155     (0)  
H(0)          8.605e-26
   H2              4.302e-26   4.677e-26   -25.366   -25.330     0.036     28.61
Hto           1.000e-06
   Hto             1.000e-06   1.000e-06    -6.000    -6.000     0.000     (0)  
I             1.000e-06
   I-              1.000e-06   1.000e-06    -6.000    -6.000    -0.000     (0)  
K             1.540e-03
   K+              1.517e-03   1.011e-03    -2.819    -2.995    -0.176      9.47
   KSO4-           2.238e-05   1.864e-05    -4.650    -4.730    -0.080     13.44
   KHCO3           6.366e-07   6.416e-07    -6.196    -6.193     0.003     41.03
Mg            1.720e-02
   Mg+2            1.577e-02   4.807e-03    -1.802    -2.318    -0.516    -20.70
   MgSO4           1.290e-03   1.524e-03    -2.890    -2.817     0.073     -7.92
   MgHCO3+         1.186e-04   7.988e-05    -3.926    -4.098    -0.172      5.77
   Mg(SO4)2-2      1.915e-05   6.081e-06    -4.718    -5.216    -0.498     28.46
   MgCO3           3.457e-06   3.759e-06    -5.461    -5.425     0.036    -17.09
   MgOH+           2.897e-07   2.126e-07    -6.538    -6.673    -0.134     (0)  
Na            2.390e-01
   Na+             2.341e-01   1.695e-01    -0.631    -0.771    -0.140     -0.75
   NaSO4-          4.690e-03   3.342e-03    -2.329    -2.476    -0.147      3.25
   NaHCO3          1.774e-04   2.097e-04    -3.751    -3.678     0.073     31.73
   NaOH            1.922e-18   2.090e-18   -17.716   -17.680     0.036     (0)  
Nat           1.000e-06
   Nat+            1.000e-06   1.000e-06    -6.000    -6.000    -0.000     (0)  
O(0)          0.000e+00
   O2              0.000e+00   0.000e+00   -41.765   -41.729     0.036     30.40
S(6)          1.260e-02
   SO4-2           5.194e-03   1.211e-03    -2.284    -2.917    -0.632     32.54
   NaSO4-          4.690e-03   3.342e-03    -2.329    -2.476    -0.147      3.25
   CaSO4           1.337e-03   1.454e-03    -2.874    -2.838     0.036      7.50
   MgSO4           1.290e-03   1.524e-03    -2.890    -2.817     0.073     -7.92
   SrSO4           2.810e-05   3.055e-05    -4.551    -4.515     0.036     24.24
   KSO4-           2.238e-05   1.864e-05    -4.650    -4.730    -0.080     13.44
   Mg(SO4)2-2      1.915e-05   6.081e-06    -4.718    -5.216    -0.498     28.46
   HSO4-           1.310e-08   9.572e-09    -7.883    -8.019    -0.136     40.78
   CaHSO4+         1.063e-09   7.766e-10    -8.974    -9.110    -0.136     (0)  
Sr            5.000e-04
   Sr+2            4.679e-04   1.294e-04    -3.330    -3.888    -0.558    -16.76
   SrSO4           2.810e-05   3.055e-05    -4.551    -4.515     0.036     24.24
   SrHCO3+         3.957e-06   2.811e-06    -5.403    -5.551    -0.149     (0)  
   SrCO3           6.225e-08   6.767e-08    -7.206    -7.170     0.036    -14.13
   SrOH+           1.153e-10   8.080e-11    -9.938   -10.093    -0.154     (0)  

------------------------------Saturation indices-------------------------------

  Phase               SI** log IAP   log K(298 K,   1 atm)

  Anhydrite        -0.81     -5.09   -4.28  CaSO4
  Aragonite         0.08     -8.26   -8.34  CaCO3
  Arcanite         -7.03     -8.91   -1.88  K2SO4
  Calcite           0.22     -8.26   -8.48  CaCO3
  Celestite        -0.15     -6.80   -6.66  SrSO4
  CO2(g)           -2.11     -3.58   -1.47  CO2
  Dolomite          0.42    -16.66  -17.08  CaMg(CO3)2
  Epsomite         -3.53     -5.27   -1.74  MgSO4:7H2O
  Gypsum           -0.51     -5.10   -4.58  CaSO4:2H2O
  H2(g)           -22.23    -25.33   -3.10  H2
  H2O(g)           -1.51     -0.00    1.50  H2O
  Halite           -3.04     -1.47    1.57  NaCl
  Hexahydrite      -3.69     -5.26   -1.57  MgSO4:6H2O
  Kieserite        -4.08     -5.24   -1.16  MgSO4:H2O
  Mirabilite       -3.26     -4.50   -1.24  Na2SO4:10H2O
  O2(g)           -38.84    -41.73   -2.89  O2
  Strontianite     -0.70     -9.97   -9.27  SrCO3
  Sylvite          -4.59     -3.69    0.90  KCl
  Thenardite       -4.16     -4.46   -0.30  Na2SO4

**For a gas, SI = log10(fugacity). Fugacity = pressure * phi / 1 atm.
  For ideal gases, phi = 1.

Initial solution 4.	

-----------------------------Solution composition------------------------------

	Elements           Molality       Moles

	Alkalinity        2.500e-03   2.945e-04
	Ca                2.590e-02   3.051e-03
	Cl                3.000e-01   3.535e-02  Charge balance
	K                 1.540e-03   1.814e-04
	Mg                1.720e-02   2.026e-03
	Na                2.390e-01   2.816e-02
	S(6)              1.260e-02   1.484e-03
	Sr                5.000e-04   5.890e-05

----------------------------Description of solution----------------------------

                                       pH  =   7.090    
                                       pe  =   4.000    
      Specific Conductance (µS/cm,  25°C)  = 30189
                          Density (g/cm³)  =   1.01109
                               Volume (L)  =   0.11874
                        Viscosity (mPa s)  =   0.92720
                        Activity of water  =   0.990
                 Ionic strength (mol/kgw)  =   3.630e-01
                       Mass of water (kg)  =   1.178e-01
                    Total carbon (mol/kg)  =   2.732e-03
                       Total CO2 (mol/kg)  =   2.732e-03
                         Temperature (°C)  =  25.00
                  Electrical balance (eq)  =  -2.696e-15
 Percent error, 100*(Cat-|An|)/(Cat+|An|)  =  -0.00
                               Iterations  =   8 (16 overall)
                                  Total H  = 1.307864e+01
                                  Total O  = 6.546046e+00

----------------------------Distribution of species----------------------------

                                               Log       Log       Log    mole V
   Species          Molality    Activity  Molality  Activity     Gamma   cm³/mol

   OH-             1.872e-07   1.233e-07    -6.728    -6.909    -0.182     -3.17
   H+              1.048e-07   8.128e-08    -6.980    -7.090    -0.110      0.00
   H2O             5.551e+01   9.899e-01     1.744    -0.004     0.000     18.07
C(4)          2.732e-03
   HCO3-           1.999e-03   1.420e-03    -2.699    -2.848    -0.149     25.45
   CO2             2.481e-04   2.622e-04    -3.605    -3.581     0.024     34.43
   NaHCO3          1.774e-04   2.097e-04    -3.751    -3.678     0.073     31.73
   CaHCO3+         1.690e-04   1.223e-04    -3.772    -3.913    -0.140      9.92
   MgHCO3+         1.186e-04   7.988e-05    -3.926    -4.098    -0.172      5.77
   CaCO3           8.545e-06   9.290e-06    -5.068    -5.032     0.036    -14.60
   SrHCO3+         3.957e-06   2.811e-06    -5.403    -5.551    -0.149     (0)  
   MgCO3           3.457e-06   3.759e-06    -5.461    -5.425     0.036    -17.09
   CO3-2           3.219e-06   8.195e-07    -5.492    -6.086    -0.594     -1.53
   KHCO3           6.366e-07   6.416e-07    -6.196    -6.193     0.003     41.03
   SrCO3           6.225e-08   6.767e-08    -7.206    -7.170     0.036    -14.13
   (CO2)2          1.161e-09   1.262e-09    -8.935    -8.899     0.036     68.87
Ca            2.590e-02
   Ca+2            2.439e-02   6.749e-03    -1.613    -2.171    -0.558    -16.98
   CaSO4           1.337e-03   1.454e-03    -2.874    -2.838     0.036      7.50
   CaHCO3+         1.690e-04   1.223e-04    -3.772    -3.913    -0.140      9.92
   CaCO3           8.545e-06   9.290e-06    -5.068    -5.032     0.036    -14.60
   CaOH+           1.867e-08   1.364e-08    -7.729    -7.865    -0.136     (0)  
   CaHSO4+         1.063e-09   7.766e-10    -8.974    -9.110    -0.136     (0)  
Cl            3.000e-01
   Cl-             3.000e-01   2.016e-01    -0.523    -0.695    -0.173     18.60
   HCl             3.955e-09   5.645e-09    -8.403    -8.248     0.155     (0)  
H(0)          8.605e-26
   H2              4.302e-26   4.677e-26   -25.366   -25.330     0.036     28.61
K             1.540e-03
   K+              1.517e-03   1.011e-03    -2.819    -2.995    -0.176      9.47
   KSO4-           2.238e-05   1.864e-05    -4.650    -4.730    -0.080     13.44
   KHCO3           6.366e-07   6.416e-07    -6.196    -6.193     0.003     41.03
Mg            1.720e-02
   Mg+2            1.577e-02   4.807e-03    -1.802    -2.318    -0.516    -20.70
   MgSO4           1.290e-03   1.524e-03    -2.890    -2.817     0.073     -7.92
   MgHCO3+         1.186e-04   7.988e-05    -3.926    -4.098    -0.172      5.77
   Mg(SO4)2-2      1.915e-05   6.081e-06    -4.718    -5.216    -0.498     28.46
   MgCO3           3.457e-06   3.759e-06    -5.461    -5.425     0.036    -17.09
   MgOH+           2.897e-07   2.126e-07    -6.538    -6.673    -0.134     (0)  
Na            2.390e-01
   Na+             2.341e-01   1.695e-01    -0.631    -0.771    -0.140     -0.75
   NaSO4-          4.690e-03   3.342e-03    -2.329    -2.476    -0.147      3.25
   NaHCO3          1.774e-04   2.097e-04    -3.751    -3.678     0.073     31.73
   NaOH            1.922e-18   2.090e-18   -17.716   -17.680     0.036     (0)  
O(0)          0.000e+00
   O2              0.000e+00   0.000e+00   -41.765   -41.729     0.036     30.40
S(6)          1.260e-02
   SO4-2           5.194e-03   1.211e-03    -2.284    -2.917    -0.632     32.54
   NaSO4-          4.690e-03   3.342e-03    -2.329    -2.476    -0.147      3.25
   CaSO4           1.337e-03   1.454e-03    -2.874    -2.838     0.036      7.50
   MgSO4           1.290e-03   1.524e-03    -2.890    -2.817     0.073     -7.92
   SrSO4           2.810e-05   3.055e-05    -4.551    -4.515     0.036     24.24
   KSO4-           2.238e-05   1.864e-05    -4.650    -4.730    -0.080     13.44
   Mg(SO4)2-2      1.915e-05   6.081e-06    -4.718    -5.216    -0.498     28.46
   HSO4-           1.310e-08   9.572e-09    -7.883    -8.019    -0.136     40.78
   CaHSO4+         1.063e-09   7.766e-10    -8.974    -9.110    -0.136     (0)  
Sr            5.000e-04
   Sr+2            4.679e-04   1.294e-04    -3.330    -3.888    -0.558    -16.76
   SrSO4           2.810e-05   3.055e-05    -4.551    -4.515     0.036     24.24
   SrHCO3+         3.957e-06   2.811e-06    -5.403    -5.551    -0.149     (0)  
   SrCO3           6.225e-08   6.767e-08    -7.206    -7.170     0.036    -14.13
   SrOH+           1.153e-10   8.081e-11    -9.938   -10.093    -0.154     (0)  

------------------------------Saturation indices-------------------------------

  Phase               SI** log IAP   log K(298 K,   1 atm)

  Anhydrite        -0.81     -5.09   -4.28  CaSO4
  Aragonite         0.08     -8.26   -8.34  CaCO3
  Arcanite         -7.03     -8.91   -1.88  K2SO4
  Calcite           0.22     -8.26   -8.48  CaCO3
  Celestite        -0.15     -6.80   -6.66  SrSO4
  CO2(g)           -2.11     -3.58   -1.47  CO2
  Dolomite          0.42    -16.66  -17.08  CaMg(CO3)2
  Epsomite         -3.53     -5.27   -1.74  MgSO4:7H2O
  Gypsum           -0.51     -5.10   -4.58  CaSO4:2H2O
  H2(g)           -22.23    -25.33   -3.10  H2
  H2O(g)           -1.51     -0.00    1.50  H2O
  Halite           -3.04     -1.47    1.57  NaCl
  Hexahydrite      -3.69     -5.26   -1.57  MgSO4:6H2O
  Kieserite        -4.08     -5.24   -1.16  MgSO4:H2O
  Mirabilite       -3.26     -4.50   -1.24  Na2SO4:10H2O
  O2(g)           -38.84    -41.73   -2.89  O2
  Strontianite     -0.70     -9.97   -9.27  SrCO3
  Sylvite          -4.59     -3.69    0.90  KCl
  Thenardite       -4.16     -4.46   -0.30  Na2SO4

**For a gas, SI = log10(fugacity). Fugacity = pressure * phi / 1 atm.
  For ideal gases, phi = 1.

-----------------------------------------
Beginning of batch-reaction calculations.
-----------------------------------------

Reaction step 1.

Using solution 0.	
Using kinetics 3.	

Kinetics 3.	

	Time step: 1 seconds

	Rate name       Delta Moles Total Moles   Reactant        Coefficient


-----------------------------Solution composition------------------------------

	Elements           Molality       Moles

	C                 2.732e-03   1.366e-03
	Ca                2.590e-02   1.295e-02
	Cl                3.000e-01   1.500e-01
	Hto               1.000e-06   5.000e-07
	I                 1.000e-06   5.000e-07
	K                 1.540e-03   7.700e-04
	Mg                1.720e-02   8.600e-03
	Na                2.390e-01   1.195e-01
	Nat               1.000e-06   5.000e-07
	S                 1.260e-02   6.300e-03
	Sr                5.000e-04   2.500e-04

----------------------------Description of solution----------------------------

                                       pH  =   7.090      Charge balance
                                       pe  =  -1.979      Adjusted to redox equilibrium
      Specific Conductance (µS/cm,  25°C)  = 30189
                          Density (g/cm³)  =   1.01109
                               Volume (L)  =   0.50394
                        Viscosity (mPa s)  =   0.92720
                        Activity of water  =   0.990
                 Ionic strength (mol/kgw)  =   3.630e-01
                       Mass of water (kg)  =   5.000e-01
                 Total alkalinity (eq/kg)  =   2.500e-03
                       Total CO2 (mol/kg)  =   2.732e-03
                         Temperature (°C)  =  25.00
                  Electrical balance (eq)  =  -1.152e-14
 Percent error, 100*(Cat-|An|)/(Cat+|An|)  =  -0.00
                               Iterations  =  11
                                  Total H  = 5.550745e+01
                                  Total O  = 2.778228e+01

----------------------------Distribution of species----------------------------

                                               Log       Log       Log    mole V
   Species          Molality    Activity  Molality  Activity     Gamma   cm³/mol

   OH-             1.872e-07   1.233e-07    -6.728    -6.909    -0.182     -3.17
   H+              1.048e-07   8.128e-08    -6.980    -7.090    -0.110      0.00
   H2O             5.551e+01   9.899e-01     1.744    -0.004     0.000     18.07
C(-4)         7.875e-21
   CH4             7.875e-21   8.561e-21   -20.104   -20.067     0.036     35.46
C(4)          2.732e-03
   HCO3-           1.999e-03   1.420e-03    -2.699    -2.848    -0.149     25.45
   CO2             2.481e-04   2.622e-04    -3.605    -3.581     0.024     34.43
   NaHCO3          1.774e-04   2.097e-04    -3.751    -3.678     0.073     31.73
   CaHCO3+         1.690e-04   1.223e-04    -3.772    -3.913    -0.140      9.92
   MgHCO3+         1.186e-04   7.988e-05    -3.926    -4.098    -0.172      5.77
   CaCO3           8.545e-06   9.290e-06    -5.068    -5.032     0.036    -14.60
   SrHCO3+         3.957e-06   2.811e-06    -5.403    -5.551    -0.149     (0)  
   MgCO3           3.457e-06   3.759e-06    -5.461    -5.425     0.036    -17.09
   CO3-2           3.219e-06   8.195e-07    -5.492    -6.086    -0.594     -1.53
   KHCO3           6.366e-07   6.416e-07    -6.196    -6.193     0.003     41.03
   SrCO3           6.225e-08   6.767e-08    -7.206    -7.170     0.036    -14.13
   (CO2)2          1.161e-09   1.262e-09    -8.935    -8.899     0.036     68.87
Ca            2.590e-02
   Ca+2            2.439e-02   6.749e-03    -1.613    -2.171    -0.558    -16.98
   CaSO4           1.337e-03   1.454e-03    -2.874    -2.838     0.036      7.50
   CaHCO3+         1.690e-04   1.223e-04    -3.772    -3.913    -0.140      9.92
   CaCO3           8.545e-06   9.290e-06    -5.068    -5.032     0.036    -14.60
   CaOH+           1.867e-08   1.364e-08    -7.729    -7.865    -0.136     (0)  
   CaHSO4+         1.063e-09   7.766e-10    -8.974    -9.110    -0.136     (0)  
Cl            3.000e-01
   Cl-             3.000e-01   2.016e-01    -0.523    -0.695    -0.173     18.60
   HCl             3.955e-09   5.645e-09    -8.403    -8.248     0.155     (0)  
H(0)          7.824e-14
   H2              3.912e-14   4.253e-14   -13.408   -13.371     0.036     28.61
Hto           1.000e-06
   Hto             1.000e-06   1.000e-06    -6.000    -6.000     0.000     (0)  
I             1.000e-06
   I-              1.000e-06   1.000e-06    -6.000    -6.000    -0.000     (0)  
K             1.540e-03
   K+              1.517e-03   1.011e-03    -2.819    -2.995    -0.176      9.47
   KSO4-           2.238e-05   1.864e-05    -4.650    -4.730    -0.080     13.44
   KHCO3           6.366e-07   6.416e-07    -6.196    -6.193     0.003     41.03
Mg            1.720e-02
   Mg+2            1.577e-02   4.807e-03    -1.802    -2.318    -0.516    -20.70
   MgSO4           1.290e-03   1.524e-03    -2.890    -2.817     0.073     -7.92
   MgHCO3+         1.186e-04   7.988e-05    -3.926    -4.098    -0.172      5.77
   Mg(SO4)2-2      1.915e-05   6.081e-06    -4.718    -5.216    -0.498     28.46
   MgCO3           3.457e-06   3.759e-06    -5.461    -5.425     0.036    -17.09
   MgOH+           2.897e-07   2.126e-07    -6.538    -6.673    -0.134     (0)  
Na            2.390e-01
   Na+             2.341e-01   1.695e-01    -0.631    -0.771    -0.140     -0.75
   NaSO4-          4.690e-03   3.342e-03    -2.329    -2.476    -0.147      3.25
   NaHCO3          1.774e-04   2.097e-04    -3.751    -3.678     0.073     31.73
   NaOH            1.922e-18   2.090e-18   -17.716   -17.680     0.036     (0)  
Nat           1.000e-06
   Nat+            1.000e-06   1.000e-06    -6.000    -6.000    -0.000     (0)  
O(0)          0.000e+00
   O2              0.000e+00   0.000e+00   -65.683   -65.646     0.036     30.40
S(-2)         1.296e-17
   HS-             9.061e-18   5.965e-18   -17.043   -17.224    -0.182     21.14
   H2S             3.899e-18   4.239e-18   -17.409   -17.373     0.036     36.27
   S-2             3.676e-23   8.864e-24   -22.435   -23.052    -0.618     (0)  
   (H2S)2          8.711e-37   9.470e-37   -36.060   -36.024     0.036     30.09
S(6)          1.260e-02
   SO4-2           5.194e-03   1.211e-03    -2.284    -2.917    -0.632     32.54
   NaSO4-          4.690e-03   3.342e-03    -2.329    -2.476    -0.147      3.25
   CaSO4           1.337e-03   1.454e-03    -2.874    -2.838     0.036      7.50
   MgSO4           1.290e-03   1.524e-03    -2.890    -2.817     0.073     -7.92
   SrSO4           2.810e-05   3.055e-05    -4.551    -4.515     0.036     24.24
   KSO4-           2.238e-05   1.864e-05    -4.650    -4.730    -0.080     13.44
   Mg(SO4)2-2      1.915e-05   6.081e-06    -4.718    -5.216    -0.498     28.46
   HSO4-           1.310e-08   9.572e-09    -7.883    -8.019    -0.136     40.78
   CaHSO4+         1.063e-09   7.766e-10    -8.974    -9.110    -0.136     (0)  
Sr            5.000e-04
   Sr+2            4.679e-04   1.294e-04    -3.330    -3.888    -0.558    -16.76
   SrSO4           2.810e-05   3.055e-05    -4.551    -4.515     0.036     24.24
   SrHCO3+         3.957e-06   2.811e-06    -5.403    -5.551    -0.149     (0)  
   SrCO3           6.225e-08   6.767e-08    -7.206    -7.170     0.036    -14.13
   SrOH+           1.153e-10   8.080e-11    -9.938   -10.093    -0.154     (0)  

------------------------------Saturation indices-------------------------------

  Phase               SI** log IAP   log K(298 K,   1 atm)

  Anhydrite        -0.81     -5.09   -4.28  CaSO4
  Aragonite         0.08     -8.26   -8.34  CaCO3
  Arcanite         -7.03     -8.91   -1.88  K2SO4
  Calcite           0.22     -8.26   -8.48  CaCO3
  Celestite        -0.15     -6.80   -6.66  SrSO4
  CH4(g)          -17.27    -20.07   -2.80  CH4
  CO2(g)           -2.11     -3.58   -1.47  CO2
  Dolomite          0.42    -16.66  -17.08  CaMg(CO3)2
  Epsomite         -3.53     -5.27   -1.74  MgSO4:7H2O
  Gypsum           -0.51     -5.10   -4.58  CaSO4:2H2O
  H2(g)           -10.27    -13.37   -3.10  H2
  H2O(g)           -1.51     -0.00    1.50  H2O
  H2S(g)          -16.38    -24.31   -7.94  H2S
  Halite           -3.04     -1.47    1.57  NaCl
  Hexahydrite      -3.69     -5.26   -1.57  MgSO4:6H2O
  Kieserite        -4.08     -5.24   -1.16  MgSO4:H2O
  Mirabilite       -3.26     -4.50   -1.24  Na2SO4:10H2O
  O2(g)           -62.75    -65.65   -2.89  O2
  Strontianite     -0.70     -9.97   -9.27  SrCO3
  Sulfur          -12.03     -7.15    4.88  S
  Sylvite          -4.59     -3.69    0.90  KCl
  Thenardite       -4.16     -4.46   -0.30  Na2SO4

**For a gas, SI = log10(fugacity). Fugacity = pressure * phi / 1 atm.
  For ideal gases, phi = 1.

------------------
End of simulation.
------------------

------------------------------------
Reading input data for simulation 2.
------------------------------------

	SURFACE_MASTER_SPECIES
	 Su Su-                                          
	SURFACE_SPECIES
	        Su- = Su-
	      log_k 0                         
	SURFACE 4-23
	   equilibrate 4
	       Su      0.376991118     1.00E+05        1
	 donnan      1.18E-09
	only_counter_ions
	END
------------------------------------------------------
Beginning of initial surface-composition calculations.
------------------------------------------------------

Surface 4.	

Diffuse Double Layer Surface-Complexation Model

Su            
	 -9.182e-14  Surface + diffuse layer charge, eq
	 -3.770e-01  Surface charge, eq
	 -3.638e-01  sigma, C/m²
	 -1.203e-01  psi, V
	  4.681e+00  -F*psi/RT
	  1.079e+02  exp(-F*psi/RT)
	  1.000e+05  specific area, m²/g
	  1.000e+05  m² for   1.000e+00 g

	Water in diffuse layer: 1.180e-01 kg, 100.0% of total DDL-water.

	Total moles in diffuse layer (excluding water), Donnan calculation.
	Donnan Layer potential, psi_DL = -4.127e-02 V.
	Boltzmann factor, exp(-psi_DL * F / RT) = 4.985e+00 (= c_DL / c_free if z is +1).

	Element       	     Moles
	C             	  2.2319e-04
	Ca            	  7.1757e-02
	Cl            	  4.6678e-10
	H             	  1.9273e-04
	K             	  8.9236e-04
	Mg            	  4.6457e-02
	Na            	  1.3774e-01
	O             	  1.8935e-03
	S             	  3.1327e-04
	Sr            	  1.3775e-03

Su            
	  3.770e-01  moles
	                                   Mole                     Log
	Species               Moles    Fraction    Molality    Molality

	Su-               3.770e-01       1.000   3.200e+00       0.505

------------------
End of simulation.
------------------

------------------------------------
Reading input data for simulation 3.
------------------------------------

	MIX     3       
	       4       1.08000E-02
	MIX     4       
	       5       5.40000E-03
	MIX     5       
	       6       5.40000E-03
	MIX     6       
	       7       5.40000E-03
	MIX     7       
	       8       5.40000E-03
	MIX     8       
	       9       5.40000E-03
	MIX     9       
	       10      5.40000E-03
	MIX     10      
	       11      5.40000E-03
	MIX     11      
	       12      5.40000E-03
	MIX     12      
	       13      5.40000E-03
	MIX     13      
	       14      5.40000E-03
	MIX     14      
	       15      5.40000E-03
	MIX     15      
	       16      5.40000E-03
	MIX     16      
	       17      5.40000E-03
	MIX     17      
	       18      5.40000E-03
	MIX     18      
	       19      5.40000E-03
	MIX     19      
	       20      5.40000E-03
	MIX     20      
	       21      5.40000E-03
	MIX     21      
	       22      5.40000E-03
	MIX     22      
	       23      5.40000E-03
	END
-----------------------------------------
Beginning of batch-reaction calculations.
-----------------------------------------

Reaction step 1.

Using mix 3.	

Mixture 3.	

	  1.080e-02 Solution 4	                                                       

-----------------------------Solution composition------------------------------

	Elements           Molality       Moles

	C                 2.732e-03   3.477e-06
	Ca                2.590e-02   3.295e-05
	Cl                3.000e-01   3.818e-04
	K                 1.540e-03   1.959e-06
	Mg                1.720e-02   2.188e-05
	Na                2.390e-01   3.041e-04
	S                 1.260e-02   1.603e-05
	Sr                5.000e-04   6.362e-07

----------------------------Description of solution----------------------------

                                       pH  =   7.090      Charge balance
                                       pe  =  -1.694      Adjusted to redox equilibrium
      Specific Conductance (µS/cm,  25°C)  = 30189
                          Density (g/cm³)  =   1.01109
                               Volume (L)  =   0.00128
                        Viscosity (mPa s)  =   0.92720
                        Activity of water  =   0.990
                 Ionic strength (mol/kgw)  =   3.630e-01
                       Mass of water (kg)  =   1.272e-03
                 Total alkalinity (eq/kg)  =   2.500e-03
                       Total CO2 (mol/kg)  =   2.732e-03
                         Temperature (°C)  =  25.00
                  Electrical balance (eq)  =  -6.046e-17
 Percent error, 100*(Cat-|An|)/(Cat+|An|)  =  -0.00
                               Iterations  =  11
                                  Total H  = 1.412493e-01
                                  Total O  = 7.069730e-02

----------------------------Distribution of species----------------------------

                                               Log       Log       Log    mole V
   Species          Molality    Activity  Molality  Activity     Gamma   cm³/mol

   OH-             1.872e-07   1.233e-07    -6.728    -6.909    -0.182     -3.17
   H+              1.048e-07   8.128e-08    -6.980    -7.090    -0.110      0.00
   H2O             5.551e+01   9.899e-01     1.744    -0.004     0.000     18.07
C(-4)         4.117e-23
   CH4             4.117e-23   4.476e-23   -22.385   -22.349     0.036     35.46
C(4)          2.732e-03
   HCO3-           1.999e-03   1.420e-03    -2.699    -2.848    -0.149     25.45
   CO2             2.481e-04   2.622e-04    -3.605    -3.581     0.024     34.43
   NaHCO3          1.774e-04   2.097e-04    -3.751    -3.678     0.073     31.73
   CaHCO3+         1.690e-04   1.223e-04    -3.772    -3.913    -0.140      9.92
   MgHCO3+         1.186e-04   7.988e-05    -3.926    -4.098    -0.172      5.77
   CaCO3           8.545e-06   9.290e-06    -5.068    -5.032     0.036    -14.60
   SrHCO3+         3.957e-06   2.811e-06    -5.403    -5.551    -0.149     (0)  
   MgCO3           3.457e-06   3.759e-06    -5.461    -5.425     0.036    -17.09
   CO3-2           3.219e-06   8.195e-07    -5.492    -6.086    -0.594     -1.53
   KHCO3           6.366e-07   6.416e-07    -6.196    -6.193     0.003     41.03
   SrCO3           6.225e-08   6.767e-08    -7.206    -7.170     0.036    -14.13
   (CO2)2          1.161e-09   1.262e-09    -8.935    -8.899     0.036     68.87
Ca            2.590e-02
   Ca+2            2.439e-02   6.749e-03    -1.613    -2.171    -0.558    -16.98
   CaSO4           1.337e-03   1.454e-03    -2.874    -2.838     0.036      7.50
   CaHCO3+         1.690e-04   1.223e-04    -3.772    -3.913    -0.140      9.92
   CaCO3           8.545e-06   9.290e-06    -5.068    -5.032     0.036    -14.60
   CaOH+           1.867e-08   1.364e-08    -7.729    -7.865    -0.136     (0)  
   CaHSO4+         1.063e-09   7.766e-10    -8.974    -9.110    -0.136     (0)  
Cl            3.000e-01
   Cl-             3.000e-01   2.016e-01    -0.523    -0.695    -0.173     18.60
   HCl             3.955e-09   5.645e-09    -8.403    -8.248     0.155     (0)  
H(0)          2.104e-14
   H2              1.052e-14   1.144e-14   -13.978   -13.942     0.036     28.61
K             1.540e-03
   K+              1.517e-03   1.011e-03    -2.819    -2.995    -0.176      9.47
   KSO4-           2.238e-05   1.864e-05    -4.650    -4.730    -0.080     13.44
   KHCO3           6.366e-07   6.416e-07    -6.196    -6.193     0.003     41.03
Mg            1.720e-02
   Mg+2            1.577e-02   4.807e-03    -1.802    -2.318    -0.516    -20.70
   MgSO4           1.290e-03   1.524e-03    -2.890    -2.817     0.073     -7.92
   MgHCO3+         1.186e-04   7.988e-05    -3.926    -4.098    -0.172      5.77
   Mg(SO4)2-2      1.915e-05   6.081e-06    -4.718    -5.216    -0.498     28.46
   MgCO3           3.457e-06   3.759e-06    -5.461    -5.425     0.036    -17.09
   MgOH+           2.897e-07   2.126e-07    -6.538    -6.673    -0.134     (0)  
Na            2.390e-01
   Na+             2.341e-01   1.695e-01    -0.631    -0.771    -0.140     -0.75
   NaSO4-          4.690e-03   3.342e-03    -2.329    -2.476    -0.147      3.25
   NaHCO3          1.774e-04   2.097e-04    -3.751    -3.678     0.073     31.73
   NaOH            1.922e-18   2.090e-18   -17.716   -17.680     0.036     (0)  
O(0)          0.000e+00
   O2              0.000e+00   0.000e+00   -64.542   -64.505     0.036     30.40
S(-2)         6.776e-20
   HS-             4.737e-20   3.119e-20   -19.324   -19.506    -0.182     21.14
   H2S             2.039e-20   2.217e-20   -19.691   -19.654     0.036     36.27
   S-2             1.922e-25   4.635e-26   -24.716   -25.334    -0.618     (0)  
   (H2S)2          0.000e+00   0.000e+00   -40.623   -40.587     0.036     30.09
S(6)          1.260e-02
   SO4-2           5.194e-03   1.211e-03    -2.284    -2.917    -0.632     32.54
   NaSO4-          4.690e-03   3.342e-03    -2.329    -2.476    -0.147      3.25
   CaSO4           1.337e-03   1.454e-03    -2.874    -2.838     0.036      7.50
   MgSO4           1.290e-03   1.524e-03    -2.890    -2.817     0.073     -7.92
   SrSO4           2.810e-05   3.055e-05    -4.551    -4.515     0.036     24.24
   KSO4-           2.238e-05   1.864e-05    -4.650    -4.730    -0.080     13.44
   Mg(SO4)2-2      1.915e-05   6.081e-06    -4.718    -5.216    -0.498     28.46
   HSO4-           1.310e-08   9.572e-09    -7.883    -8.019    -0.136     40.78
   CaHSO4+         1.063e-09   7.766e-10    -8.974    -9.110    -0.136     (0)  
Sr            5.000e-04
   Sr+2            4.679e-04   1.294e-04    -3.330    -3.888    -0.558    -16.76
   SrSO4           2.810e-05   3.055e-05    -4.551    -4.515     0.036     24.24
   SrHCO3+         3.957e-06   2.811e-06    -5.403    -5.551    -0.149     (0)  
   SrCO3           6.225e-08   6.767e-08    -7.206    -7.170     0.036    -14.13
   SrOH+           1.153e-10   8.081e-11    -9.938   -10.093    -0.154     (0)  

------------------------------Saturation indices-------------------------------

  Phase               SI** log IAP   log K(298 K,   1 atm)

  Anhydrite        -0.81     -5.09   -4.28  CaSO4
  Aragonite         0.08     -8.26   -8.34  CaCO3
  Arcanite         -7.03     -8.91   -1.88  K2SO4
  Calcite           0.22     -8.26   -8.48  CaCO3
  Celestite        -0.15     -6.80   -6.66  SrSO4
  CH4(g)          -19.55    -22.35   -2.80  CH4
  CO2(g)           -2.11     -3.58   -1.47  CO2
  Dolomite          0.42    -16.66  -17.08  CaMg(CO3)2
  Epsomite         -3.53     -5.27   -1.74  MgSO4:7H2O
  Gypsum           -0.51     -5.10   -4.58  CaSO4:2H2O
  H2(g)           -10.84    -13.94   -3.10  H2
  H2O(g)           -1.51     -0.00    1.50  H2O
  H2S(g)          -18.66    -26.60   -7.94  H2S
  Halite           -3.04     -1.47    1.57  NaCl
  Hexahydrite      -3.69     -5.26   -1.57  MgSO4:6H2O
  Kieserite        -4.08     -5.24   -1.16  MgSO4:H2O
  Mirabilite       -3.26     -4.50   -1.24  Na2SO4:10H2O
  O2(g)           -61.61    -64.51   -2.89  O2
  Strontianite     -0.70     -9.97   -9.27  SrCO3
  Sulfur          -13.74     -8.86    4.88  S
  Sylvite          -4.59     -3.69    0.90  KCl
  Thenardite       -4.16     -4.46   -0.30  Na2SO4

**For a gas, SI = log10(fugacity). Fugacity = pressure * phi / 1 atm.
  For ideal gases, phi = 1.

------------------
End of simulation.
------------------

------------------------------------
Reading input data for simulation 4.
------------------------------------

	PRINT
	 reset false
WARNING: No cell-lengths were read; length = 1 m assumed.
WARNING: No dispersivities were read; disp = 0 assumed.
WARNING: No porosities were read; used the value 1.50e-01 from -multi_D.
WARNING: 
Calculating transport: 1 (mobile) cells, 50 shifts, 1 mixruns...


