   Input file: P_CO2_Na2SO4
  Output file: P_CO2_Na2SO4.out
Database file: ../database/pitzer.dat

------------------
Reading data base.
------------------

	SOLUTION_MASTER_SPECIES
	SOLUTION_SPECIES
	PHASES
	PITZER
	EXCHANGE_MASTER_SPECIES
	EXCHANGE_SPECIES
	SURFACE_MASTER_SPECIES
	SURFACE_SPECIES
	END
------------------------------------
Reading input data for simulation 1.
------------------------------------

	DATABASE ../database/pitzer.dat
	PITZER
	 lambda # in Pitzer.dat
	 Na+  CO2 0.08
WARNING: Redefinition of parameter, Na+ CO2

	zeta
	  Na+       SO4-2     CO2     -0.02
WARNING: Redefinition of parameter, Na+ SO4-2 CO2

	SOLUTION_SPECIES
	CO3-2 + 2 H+ = CO2 + H2O
		log_k	16.681
		delta_h -5.738	kcal
		analytical_expression	464.1965	0.09344813	-26986.16	-165.75951	2248628.9
		dw	 1.92e-9
		vm   12.84 -24.3 11.1 1.52
	SOLUTION 1
	 pH 7 charge
	 Na 2e3
	 S(6) 1e3
	 temp 140
	GAS_PHASE 1
	     fixed_volume
	     CO2(g) 0
		 H2O(g) 0
	EQUILIBRIUM_PHASES
	REACTION
	 CO2 1
	 4 in 10
	USER_GRAPH
	 -plot_csv_file P_CO2_Na2SO4.dat
	 -axis_titles "CO2 pressure / bar" "Solubility at 140 oC / (mol/kgw)"
	 -connect_simulations false
	 -axis_scale x_axis 0 100
	 10 graph_x pr_p("CO2(g)") * 1.013
	 20 graph_y tot("C")
	END
-------------------------------------------
Beginning of initial solution calculations.
-------------------------------------------

Initial solution 1.	

-----------------------------Solution composition------------------------------

	Elements           Molality       Moles

	Na                2.000e+00   2.000e+00
	S(6)              1.000e+00   1.000e+00

----------------------------Description of solution----------------------------

                                       pH  =   7.178      Charge balance
                                       pe  =   4.000    
       Specific Conductance (uS/cm, 140 oC) = 172620
                          Density (g/cm3)  =   1.03674
                        Activity of water  =   0.958
                           Ionic strength  =   3.000e+00
                       Mass of water (kg)  =   1.000e+00
                 Total alkalinity (eq/kg)  =   1.408e-13
                    Total carbon (mol/kg)  =   0.000e+00
                       Total CO2 (mol/kg)  =   0.000e+00
                      Temperature (deg C)  = 140.00
                  Electrical balance (eq)  =   1.669e-09
 Percent error, 100*(Cat-|An|)/(Cat+|An|)  =   0.00
                               Iterations  =  11
                         Gamma iterations  =   4
                      Osmotic coefficient  =   0.78764
                         Density of water  =   0.92618
                                  Total H  = 1.110125e+02
                                  Total O  = 5.950626e+01

----------------------------Distribution of species----------------------------

                                                    MacInnes  MacInnes
                                MacInnes       Log       Log       Log    mole V
   Species          Molality    Activity  Molality  Activity     Gamma   cm3/mol

   OH-             4.112e-05   2.740e-05    -4.386    -4.562    -0.176     -1.54
   H+              3.577e-07   6.643e-08    -6.446    -7.178    -0.731      0.00
   H2O             5.551e+01   9.583e-01     1.744    -0.018     0.000     19.45
Na            2.000e+00
   Na+             2.000e+00   7.867e-01     0.301    -0.104    -0.405      2.12
S(6)          1.000e+00
   SO4-2           1.000e+00   8.053e-02    -0.000    -1.094    -1.094     17.57
   HSO4-           4.076e-05   1.978e-05    -4.390    -4.704    -0.314     38.68

------------------------------Saturation indices-------------------------------

	Phase               SI   log IAP   log K(413 K,   1 atm)

	H2O(g)            0.52     -0.02   -0.54  H2O
	Mirabilite        1.53     -1.49   -3.01  Na2SO4:10H2O


-----------------------------------------
Beginning of batch-reaction calculations.
-----------------------------------------

Reaction step 1.

WARNING: Numerical method failed, switching to numerical derivatives.
Using solution 1.	
Using pure phase assemblage 1.	
Using gas phase 1.	
Using reaction 1.	

Reaction 1.	

	  4.000e-01 moles of the following reaction have been added:

	                 Relative
	Reactant            moles

	CO2                  1.00000

	                 Relative
	Element             moles
	C                    1.00000
	O                    2.00000

-----------------------------------Gas phase-----------------------------------

Total pressure: 14.67      atmospheres          (Peng-Robinson calculation)
    Gas volume:   1.00e+00 liters
  Molar volume:   2.23e+00 liters/mole
   P * Vm / RT:  0.96284  (Compressibility Factor Z) 

                                                        Moles in gas
                                            ----------------------------------
Component         log P           P    phi     Initial       Final       Delta

CO2(g)             1.04   1.105e+01  0.976   0.000e+00   3.385e-01   3.385e-01
H2O(g)             0.56   3.615e+00  0.928   0.000e+00   1.107e-01   1.107e-01

-----------------------------Solution composition------------------------------

	Elements           Molality       Moles

	C                 6.161e-02   6.148e-02
	Na                2.004e+00   2.000e+00
	S                 1.002e+00   1.000e+00

----------------------------Description of solution----------------------------

                                       pH  =   5.167      Charge balance
                                       pe  =   4.000      Adjusted to redox equilibrium
       Specific Conductance (uS/cm, 140 oC) = 175099
                          Density (g/cm3)  =   1.03816
                        Activity of water  =   0.957
                           Ionic strength  =   3.002e+00
                       Mass of water (kg)  =   9.979e-01
                 Total alkalinity (eq/kg)  =   9.230e-12
                       Total CO2 (mol/kg)  =   6.161e-02
                      Temperature (deg C)  = 140.00
                           Pressure (atm)  = 14.67
                  Electrical balance (eq)  =   1.614e-09
 Percent error, 100*(Cat-|An|)/(Cat+|An|)  =   0.00
                               Iterations  = 137
                         Gamma iterations  =   6
                      Osmotic coefficient  =   0.80048
                         Density of water  =   0.92618
                                  Total H  = 1.107910e+02
                                  Total O  = 5.951847e+01

----------------------------Distribution of species----------------------------

                                                    MacInnes  MacInnes
                                MacInnes       Log       Log       Log    mole V
   Species          Molality    Activity  Molality  Activity     Gamma   cm3/mol

   H+              3.658e-05   6.814e-06    -4.437    -5.167    -0.730      0.00
   OH-             4.031e-07   2.689e-07    -6.395    -6.570    -0.176     -1.46
   H2O             5.551e+01   9.567e-01     1.744    -0.019     0.000     19.45
C(4)          6.161e-02
   CO2             5.740e-02   9.223e-02    -1.241    -1.035     0.206     18.66
   HCO3-           4.207e-03   2.720e-03    -2.376    -2.565    -0.189     29.06
   CO3-2           2.495e-07   1.863e-08    -6.603    -7.730    -1.127      0.27
Na            2.004e+00
   Na+             2.004e+00   7.949e-01     0.302    -0.100    -0.402      2.14
S(6)          1.002e+00
   SO4-2           9.979e-01   8.103e-02    -0.001    -1.091    -1.090     17.66
   HSO4-           4.171e-03   2.025e-03    -2.380    -2.694    -0.314     38.63

------------------------------Saturation indices-------------------------------

	Phase               SI   log IAP   log K(413 K,  15 atm)

	Burkeite         -9.76    -10.51   -0.75  Na6CO3(SO4)2
	CO2(g)            1.03     -1.04   -2.06  CO2	 Pressure  11.1 atm, phi 0.976.
	H2O(g)            0.53     -0.02   -0.54  H2O	 Pressure   3.6 atm, phi 0.928.
	Mirabilite        1.53     -1.48   -3.01  Na2SO4:10H2O
	Nahcolite        -2.25    -13.00  -10.74  NaHCO3
	Natron           -7.26     -8.12   -0.86  Na2CO3:10H2O
	Trona            -9.59    -20.96  -11.37  Na3H(CO3)2:2H2O


Reaction step 2.

Using solution 1.	
Using pure phase assemblage 1.	
Using gas phase 1.	
Using reaction 1.	

Reaction 1.	

	  8.000e-01 moles of the following reaction have been added:

	                 Relative
	Reactant            moles

	CO2                  1.00000

	                 Relative
	Element             moles
	C                    1.00000
	O                    2.00000

-----------------------------------Gas phase-----------------------------------

Total pressure: 25.67      atmospheres          (Peng-Robinson calculation)
    Gas volume:   1.00e+00 liters
  Molar volume:   1.25e+00 liters/mole
   P * Vm / RT:  0.94320  (Compressibility Factor Z) 

                                                        Moles in gas
                                            ----------------------------------
Component         log P           P    phi     Initial       Final       Delta

CO2(g)             1.34   2.187e+01  0.955   0.000e+00   6.839e-01   6.839e-01
H2O(g)             0.58   3.803e+00  0.886   0.000e+00   1.189e-01   1.189e-01

-----------------------------Solution composition------------------------------

	Elements           Molality       Moles

	C                 1.164e-01   1.161e-01
	Na                2.005e+00   2.000e+00
	S                 1.002e+00   1.000e+00

----------------------------Description of solution----------------------------

                                       pH  =   5.024      Charge balance
                                       pe  =   4.000      Adjusted to redox equilibrium
       Specific Conductance (uS/cm, 140 oC) = 177117
                          Density (g/cm3)  =   1.03927
                        Activity of water  =   0.955
                           Ionic strength  =   3.001e+00
                       Mass of water (kg)  =   9.978e-01
                 Total alkalinity (eq/kg)  =   1.711e-11
                       Total CO2 (mol/kg)  =   1.164e-01
                      Temperature (deg C)  = 140.00
                           Pressure (atm)  = 25.67
                  Electrical balance (eq)  =   1.571e-09
 Percent error, 100*(Cat-|An|)/(Cat+|An|)  =   0.00
                               Iterations  =  42
                         Gamma iterations  =   6
                      Osmotic coefficient  =   0.81151
                         Density of water  =   0.92618
                                  Total H  = 1.107747e+02
                                  Total O  = 5.961960e+01

----------------------------Distribution of species----------------------------

                                                    MacInnes  MacInnes
                                MacInnes       Log       Log       Log    mole V
   Species          Molality    Activity  Molality  Activity     Gamma   cm3/mol

   H+              5.072e-05   9.459e-06    -4.295    -5.024    -0.729      0.00
   OH-             2.918e-07   1.947e-07    -6.535    -6.711    -0.176     -1.40
   H2O             5.551e+01   9.554e-01     1.744    -0.020     0.000     19.45
C(4)          1.164e-01
   CO2             1.106e-01   1.776e-01    -0.956    -0.751     0.206     18.82
   HCO3-           5.842e-03   3.779e-03    -2.233    -2.423    -0.189     29.12
   CO3-2           2.520e-07   1.882e-08    -6.599    -7.725    -1.127      0.32
Na            2.005e+00
   Na+             2.005e+00   8.010e-01     0.302    -0.096    -0.398      2.16
S(6)          1.002e+00
   SO4-2           9.965e-01   8.161e-02    -0.002    -1.088    -1.087     17.73
   HSO4-           5.792e-03   2.812e-03    -2.237    -2.551    -0.314     38.58

------------------------------Saturation indices-------------------------------

	Phase               SI   log IAP   log K(413 K,  26 atm)

	Burkeite         -9.74    -10.48   -0.74  Na6CO3(SO4)2
	CO2(g)            1.31     -0.75   -2.06  CO2	 Pressure  21.9 atm, phi 0.955.
	H2O(g)            0.53     -0.02   -0.55  H2O	 Pressure   3.8 atm, phi 0.886.
	Mirabilite        1.53     -1.48   -3.01  Na2SO4:10H2O
	Nahcolite        -2.10    -12.85  -10.74  NaHCO3
	Natron           -7.23     -8.12   -0.89  Na2CO3:10H2O
	Trona            -9.44    -20.80  -11.37  Na3H(CO3)2:2H2O


Reaction step 3.

Using solution 1.	
Using pure phase assemblage 1.	
Using gas phase 1.	
Using reaction 1.	

Reaction 1.	

	  1.200e+00 moles of the following reaction have been added:

	                 Relative
	Reactant            moles

	CO2                  1.00000

	                 Relative
	Element             moles
	C                    1.00000
	O                    2.00000

-----------------------------------Gas phase-----------------------------------

Total pressure: 36.38      atmospheres          (Peng-Robinson calculation)
    Gas volume:   1.00e+00 liters
  Molar volume:   8.61e-01 liters/mole
   P * Vm / RT:  0.92393  (Compressibility Factor Z) 

                                                        Moles in gas
                                            ----------------------------------
Component         log P           P    phi     Initial       Final       Delta

CO2(g)             1.51   3.238e+01  0.936   0.000e+00   1.034e+00   1.034e+00
H2O(g)             0.60   3.996e+00  0.848   0.000e+00   1.276e-01   1.276e-01

-----------------------------Solution composition------------------------------

	Elements           Molality       Moles

	C                 1.666e-01   1.662e-01
	Na                2.005e+00   2.000e+00
	S                 1.002e+00   1.000e+00

----------------------------Description of solution----------------------------

                                       pH  =   4.944      Charge balance
                                       pe  =   4.000      Adjusted to redox equilibrium
       Specific Conductance (uS/cm, 140 oC) = 178944
                          Density (g/cm3)  =   1.04027
                        Activity of water  =   0.954
                           Ionic strength  =   3.000e+00
                       Mass of water (kg)  =   9.976e-01
                 Total alkalinity (eq/kg)  =   2.557e-11
                       Total CO2 (mol/kg)  =   1.666e-01
                      Temperature (deg C)  = 140.00
                           Pressure (atm)  = 36.38
                  Electrical balance (eq)  =   1.527e-09
 Percent error, 100*(Cat-|An|)/(Cat+|An|)  =   0.00
                               Iterations  =  44
                         Gamma iterations  =   6
                      Osmotic coefficient  =   0.82128
                         Density of water  =   0.92618
                                  Total H  = 1.107574e+02
                                  Total O  = 5.971101e+01

----------------------------Distribution of species----------------------------

                                                    MacInnes  MacInnes
                                MacInnes       Log       Log       Log    mole V
   Species          Molality    Activity  Molality  Activity     Gamma   cm3/mol

   H+              6.091e-05   1.137e-05    -4.215    -4.944    -0.729      0.00
   OH-             2.439e-07   1.629e-07    -6.613    -6.788    -0.175     -1.35
   H2O             5.551e+01   9.541e-01     1.744    -0.020     0.000     19.45
C(4)          1.666e-01
   CO2             1.595e-01   2.563e-01    -0.797    -0.591     0.206     18.98
   HCO3-           7.023e-03   4.545e-03    -2.153    -2.342    -0.189     29.17
   CO3-2           2.544e-07   1.901e-08    -6.594    -7.721    -1.127      0.36
Na            2.005e+00
   Na+             2.005e+00   8.065e-01     0.302    -0.093    -0.395      2.18
S(6)          1.002e+00
   SO4-2           9.955e-01   8.219e-02    -0.002    -1.085    -1.083     17.79
   HSO4-           6.963e-03   3.381e-03    -2.157    -2.471    -0.314     38.54

------------------------------Saturation indices-------------------------------

	Phase               SI   log IAP   log K(413 K,  36 atm)

	Burkeite         -9.73    -10.45   -0.73  Na6CO3(SO4)2
	CO2(g)            1.46     -0.59   -2.06  CO2	 Pressure  32.4 atm, phi 0.936.
	H2O(g)            0.53     -0.02   -0.55  H2O	 Pressure   4.0 atm, phi 0.848.
	Mirabilite        1.54     -1.48   -3.01  Na2SO4:10H2O
	Nahcolite        -2.02    -12.76  -10.74  NaHCO3
	Natron           -7.20     -8.11   -0.92  Na2CO3:10H2O
	Trona            -9.35    -20.71  -11.36  Na3H(CO3)2:2H2O


Reaction step 4.

Using solution 1.	
Using pure phase assemblage 1.	
Using gas phase 1.	
Using reaction 1.	

Reaction 1.	

	  1.600e+00 moles of the following reaction have been added:

	                 Relative
	Reactant            moles

	CO2                  1.00000

	                 Relative
	Element             moles
	C                    1.00000
	O                    2.00000

-----------------------------------Gas phase-----------------------------------

Total pressure: 46.80      atmospheres          (Peng-Robinson calculation)
    Gas volume:   1.00e+00 liters
  Molar volume:   6.56e-01 liters/mole
   P * Vm / RT:  0.90542  (Compressibility Factor Z) 

                                                        Moles in gas
                                            ----------------------------------
Component         log P           P    phi     Initial       Final       Delta

CO2(g)             1.63   4.260e+01  0.919   0.000e+00   1.388e+00   1.388e+00
H2O(g)             0.62   4.195e+00  0.811   0.000e+00   1.367e-01   1.367e-01

-----------------------------Solution composition------------------------------

	Elements           Molality       Moles

	C                 2.127e-01   2.121e-01
	Na                2.005e+00   2.000e+00
	S                 1.003e+00   1.000e+00

----------------------------Description of solution----------------------------

                                       pH  =   4.890      Charge balance
                                       pe  =   4.000      Adjusted to redox equilibrium
       Specific Conductance (uS/cm, 140 oC) = 180620
                          Density (g/cm3)  =   1.04117
                        Activity of water  =   0.953
                           Ionic strength  =   3.000e+00
                       Mass of water (kg)  =   9.974e-01
                 Total alkalinity (eq/kg)  =   3.905e-12
                       Total CO2 (mol/kg)  =   2.127e-01
                      Temperature (deg C)  = 140.00
                           Pressure (atm)  = 46.80
                  Electrical balance (eq)  =   1.648e-09
 Percent error, 100*(Cat-|An|)/(Cat+|An|)  =   0.00
                               Iterations  =  47
                         Gamma iterations  =   6
                      Osmotic coefficient  =   0.83001
                         Density of water  =   0.92618
                                  Total H  = 1.107392e+02
                                  Total O  = 5.979386e+01

----------------------------Distribution of species----------------------------

                                                    MacInnes  MacInnes
                                MacInnes       Log       Log       Log    mole V
   Species          Molality    Activity  Molality  Activity     Gamma   cm3/mol

   H+              6.899e-05   1.288e-05    -4.161    -4.890    -0.729      0.00
   OH-             2.163e-07   1.445e-07    -6.665    -6.840    -0.175     -1.29
   H2O             5.551e+01   9.530e-01     1.744    -0.021     0.000     19.45
C(4)          2.127e-01
   CO2             2.047e-01   3.288e-01    -0.689    -0.483     0.206     19.12
   HCO3-           7.962e-03   5.155e-03    -2.099    -2.288    -0.189     29.22
   CO3-2           2.568e-07   1.919e-08    -6.590    -7.717    -1.126      0.41
Na            2.005e+00
   Na+             2.005e+00   8.116e-01     0.302    -0.091    -0.393      2.19
S(6)          1.003e+00
   SO4-2           9.947e-01   8.275e-02    -0.002    -1.082    -1.080     17.86
   HSO4-           7.894e-03   3.834e-03    -2.103    -2.416    -0.314     38.50

------------------------------Saturation indices-------------------------------

	Phase               SI   log IAP   log K(413 K,  47 atm)

	Burkeite         -9.71    -10.43   -0.71  Na6CO3(SO4)2
	CO2(g)            1.57     -0.48   -2.05  CO2	 Pressure  42.6 atm, phi 0.919.
	H2O(g)            0.53     -0.02   -0.55  H2O	 Pressure   4.2 atm, phi 0.811.
	Mirabilite        1.54     -1.47   -3.01  Na2SO4:10H2O
	Nahcolite        -1.95    -12.70  -10.74  NaHCO3
	Natron           -7.17     -8.11   -0.94  Na2CO3:10H2O
	Trona            -9.29    -20.64  -11.35  Na3H(CO3)2:2H2O


Reaction step 5.

Using solution 1.	
Using pure phase assemblage 1.	
Using gas phase 1.	
Using reaction 1.	

Reaction 1.	

	  2.000e+00 moles of the following reaction have been added:

	                 Relative
	Reactant            moles

	CO2                  1.00000

	                 Relative
	Element             moles
	C                    1.00000
	O                    2.00000

-----------------------------------Gas phase-----------------------------------

Total pressure: 56.94      atmospheres          (Peng-Robinson calculation)
    Gas volume:   1.00e+00 liters
  Molar volume:   5.29e-01 liters/mole
   P * Vm / RT:  0.88780  (Compressibility Factor Z) 

                                                        Moles in gas
                                            ----------------------------------
Component         log P           P    phi     Initial       Final       Delta

CO2(g)             1.72   5.254e+01  0.902   0.000e+00   1.745e+00   1.745e+00
H2O(g)             0.64   4.402e+00  0.777   0.000e+00   1.462e-01   1.462e-01

-----------------------------Solution composition------------------------------

	Elements           Molality       Moles

	C                 2.552e-01   2.545e-01
	Na                2.006e+00   2.000e+00
	S                 1.003e+00   1.000e+00

----------------------------Description of solution----------------------------

                                       pH  =   4.849      Charge balance
                                       pe  =   4.000      Adjusted to redox equilibrium
       Specific Conductance (uS/cm, 140 oC) = 182168
                          Density (g/cm3)  =   1.04199
                        Activity of water  =   0.952
                           Ionic strength  =   3.000e+00
                       Mass of water (kg)  =   9.972e-01
                 Total alkalinity (eq/kg)  =   4.468e-12
                       Total CO2 (mol/kg)  =   2.552e-01
                      Temperature (deg C)  = 140.00
                           Pressure (atm)  = 56.94
                  Electrical balance (eq)  =   1.645e-09
 Percent error, 100*(Cat-|An|)/(Cat+|An|)  =   0.00
                               Iterations  =  45
                         Gamma iterations  =   6
                      Osmotic coefficient  =   0.83784
                         Density of water  =   0.92618
                                  Total H  = 1.107200e+02
                                  Total O  = 5.986901e+01

----------------------------Distribution of species----------------------------

                                                    MacInnes  MacInnes
                                MacInnes       Log       Log       Log    mole V
   Species          Molality    Activity  Molality  Activity     Gamma   cm3/mol

   H+              7.572e-05   1.414e-05    -4.121    -4.849    -0.729      0.00
   OH-             1.979e-07   1.323e-07    -6.704    -6.879    -0.175     -1.24
   H2O             5.551e+01   9.519e-01     1.744    -0.021     0.000     19.45
C(4)          2.552e-01
   CO2             2.465e-01   3.959e-01    -0.608    -0.402     0.206     19.27
   HCO3-           8.743e-03   5.663e-03    -2.058    -2.247    -0.189     29.27
   CO3-2           2.591e-07   1.937e-08    -6.587    -7.713    -1.126      0.45
Na            2.006e+00
   Na+             2.006e+00   8.164e-01     0.302    -0.088    -0.390      2.21
S(6)          1.003e+00
   SO4-2           9.941e-01   8.328e-02    -0.003    -1.079    -1.077     17.92
   HSO4-           8.668e-03   4.210e-03    -2.062    -2.376    -0.314     38.46

------------------------------Saturation indices-------------------------------

	Phase               SI   log IAP   log K(413 K,  57 atm)

	Burkeite         -9.70    -10.40   -0.70  Na6CO3(SO4)2
	CO2(g)            1.65     -0.40   -2.05  CO2	 Pressure  52.5 atm, phi 0.902.
	H2O(g)            0.53     -0.02   -0.56  H2O	 Pressure   4.4 atm, phi 0.777.
	Mirabilite        1.54     -1.47   -3.01  Na2SO4:10H2O
	Nahcolite        -1.91    -12.65  -10.74  NaHCO3
	Natron           -7.14     -8.10   -0.97  Na2CO3:10H2O
	Trona            -9.24    -20.58  -11.34  Na3H(CO3)2:2H2O


Reaction step 6.

Using solution 1.	
Using pure phase assemblage 1.	
Using gas phase 1.	
Using reaction 1.	

Reaction 1.	

	  2.400e+00 moles of the following reaction have been added:

	                 Relative
	Reactant            moles

	CO2                  1.00000

	                 Relative
	Element             moles
	C                    1.00000
	O                    2.00000

-----------------------------------Gas phase-----------------------------------

Total pressure: 66.82      atmospheres          (Peng-Robinson calculation)
    Gas volume:   1.00e+00 liters
  Molar volume:   4.42e-01 liters/mole
   P * Vm / RT:  0.87108  (Compressibility Factor Z) 

                                                        Moles in gas
                                            ----------------------------------
Component         log P           P    phi     Initial       Final       Delta

CO2(g)             1.79   6.221e+01  0.887   0.000e+00   2.106e+00   2.106e+00
H2O(g)             0.66   4.616e+00  0.744   0.000e+00   1.563e-01   1.563e-01

-----------------------------Solution composition------------------------------

	Elements           Molality       Moles

	C                 2.945e-01   2.936e-01
	Na                2.006e+00   2.000e+00
	S                 1.003e+00   1.000e+00

----------------------------Description of solution----------------------------

                                       pH  =   4.818      Charge balance
                                       pe  =   4.000      Adjusted to redox equilibrium
       Specific Conductance (uS/cm, 140 oC) = 183602
                          Density (g/cm3)  =   1.04273
                        Activity of water  =   0.951
                           Ionic strength  =   3.000e+00
                       Mass of water (kg)  =   9.970e-01
                 Total alkalinity (eq/kg)  =   4.988e-12
                       Total CO2 (mol/kg)  =   2.945e-01
                      Temperature (deg C)  = 140.00
                           Pressure (atm)  = 66.82
                  Electrical balance (eq)  =   1.643e-09
 Percent error, 100*(Cat-|An|)/(Cat+|An|)  =   0.00
                               Iterations  =  48
                         Gamma iterations  =   6
                      Osmotic coefficient  =   0.84489
                         Density of water  =   0.92618
                                  Total H  = 1.106999e+02
                                  Total O  = 5.993725e+01

----------------------------Distribution of species----------------------------

                                                    MacInnes  MacInnes
                                MacInnes       Log       Log       Log    mole V
   Species          Molality    Activity  Molality  Activity     Gamma   cm3/mol

   H+              8.148e-05   1.522e-05    -4.089    -4.818    -0.729      0.00
   OH-             1.847e-07   1.235e-07    -6.734    -6.908    -0.175     -1.19
   H2O             5.551e+01   9.510e-01     1.744    -0.022     0.000     19.45
C(4)          2.945e-01
   CO2             2.851e-01   4.579e-01    -0.545    -0.339     0.206     19.41
   HCO3-           9.411e-03   6.098e-03    -2.026    -2.215    -0.188     29.32
   CO3-2           2.613e-07   1.954e-08    -6.583    -7.709    -1.126      0.49
Na            2.006e+00
   Na+             2.006e+00   8.208e-01     0.302    -0.086    -0.388      2.22
S(6)          1.003e+00
   SO4-2           9.937e-01   8.378e-02    -0.003    -1.077    -1.074     17.98
   HSO4-           9.330e-03   4.532e-03    -2.030    -2.344    -0.314     38.42

------------------------------Saturation indices-------------------------------

	Phase               SI   log IAP   log K(413 K,  67 atm)

	Burkeite         -9.69    -10.38   -0.69  Na6CO3(SO4)2
	CO2(g)            1.71     -0.34   -2.05  CO2	 Pressure  62.2 atm, phi 0.887.
	H2O(g)            0.54     -0.02   -0.56  H2O	 Pressure   4.6 atm, phi 0.744.
	Mirabilite        1.55     -1.47   -3.01  Na2SO4:10H2O
	Nahcolite        -1.87    -12.61  -10.74  NaHCO3
	Natron           -7.11     -8.10   -0.99  Na2CO3:10H2O
	Trona            -9.20    -20.54  -11.33  Na3H(CO3)2:2H2O


Reaction step 7.

Using solution 1.	
Using pure phase assemblage 1.	
Using gas phase 1.	
Using reaction 1.	

Reaction 1.	

	  2.800e+00 moles of the following reaction have been added:

	                 Relative
	Reactant            moles

	CO2                  1.00000

	                 Relative
	Element             moles
	C                    1.00000
	O                    2.00000

-----------------------------------Gas phase-----------------------------------

Total pressure: 76.46      atmospheres          (Peng-Robinson calculation)
    Gas volume:   1.00e+00 liters
  Molar volume:   3.79e-01 liters/mole
   P * Vm / RT:  0.85528  (Compressibility Factor Z) 

                                                        Moles in gas
                                            ----------------------------------
Component         log P           P    phi     Initial       Final       Delta

CO2(g)             1.86   7.162e+01  0.872   0.000e+00   2.470e+00   2.470e+00
H2O(g)             0.68   4.837e+00  0.714   0.000e+00   1.668e-01   1.668e-01

-----------------------------Solution composition------------------------------

	Elements           Molality       Moles

	C                 3.310e-01   3.299e-01
	Na                2.006e+00   2.000e+00
	S                 1.003e+00   1.000e+00

----------------------------Description of solution----------------------------

                                       pH  =   4.791      Charge balance
                                       pe  =   4.000      Adjusted to redox equilibrium
       Specific Conductance (uS/cm, 140 oC) = 184935
                          Density (g/cm3)  =   1.04340
                        Activity of water  =   0.950
                           Ionic strength  =   3.000e+00
                       Mass of water (kg)  =   9.968e-01
                 Total alkalinity (eq/kg)  =   5.468e-12
                       Total CO2 (mol/kg)  =   3.310e-01
                      Temperature (deg C)  = 140.00
                           Pressure (atm)  = 76.46
                  Electrical balance (eq)  =   1.642e-09
 Percent error, 100*(Cat-|An|)/(Cat+|An|)  =   0.00
                               Iterations  =  49
                         Gamma iterations  =   6
                      Osmotic coefficient  =   0.85129
                         Density of water  =   0.92618
                                  Total H  = 1.106789e+02
                                  Total O  = 5.999925e+01

----------------------------Distribution of species----------------------------

                                                    MacInnes  MacInnes
                                MacInnes       Log       Log       Log    mole V
   Species          Molality    Activity  Molality  Activity     Gamma   cm3/mol

   H+              8.650e-05   1.616e-05    -4.063    -4.791    -0.728      0.00
   OH-             1.747e-07   1.169e-07    -6.758    -6.932    -0.175     -1.14
   H2O             5.551e+01   9.501e-01     1.744    -0.022     0.000     19.45
C(4)          3.310e-01
   CO2             3.210e-01   5.155e-01    -0.494    -0.288     0.206     19.54
   HCO3-           9.992e-03   6.477e-03    -2.000    -2.189    -0.188     29.37
   CO3-2           2.634e-07   1.971e-08    -6.579    -7.705    -1.126      0.53
Na            2.006e+00
   Na+             2.006e+00   8.249e-01     0.302    -0.084    -0.386      2.24
S(6)          1.003e+00
   SO4-2           9.933e-01   8.425e-02    -0.003    -1.074    -1.072     18.04
   HSO4-           9.907e-03   4.813e-03    -2.004    -2.318    -0.314     38.38

------------------------------Saturation indices-------------------------------

	Phase               SI   log IAP   log K(413 K,  76 atm)

	Burkeite         -9.68    -10.36   -0.67  Na6CO3(SO4)2
	CO2(g)            1.76     -0.29   -2.05  CO2	 Pressure  71.6 atm, phi 0.872.
	H2O(g)            0.54     -0.02   -0.56  H2O	 Pressure   4.8 atm, phi 0.714.
	Mirabilite        1.55     -1.46   -3.01  Na2SO4:10H2O
	Nahcolite        -1.84    -12.58  -10.74  NaHCO3
	Natron           -7.08     -8.09   -1.02  Na2CO3:10H2O
	Trona            -9.17    -20.50  -11.33  Na3H(CO3)2:2H2O


Reaction step 8.

Using solution 1.	
Using pure phase assemblage 1.	
Using gas phase 1.	
Using reaction 1.	

Reaction 1.	

	  3.200e+00 moles of the following reaction have been added:

	                 Relative
	Reactant            moles

	CO2                  1.00000

	                 Relative
	Element             moles
	C                    1.00000
	O                    2.00000

-----------------------------------Gas phase-----------------------------------

Total pressure: 85.88      atmospheres          (Peng-Robinson calculation)
    Gas volume:   1.00e+00 liters
  Molar volume:   3.32e-01 liters/mole
   P * Vm / RT:  0.84040  (Compressibility Factor Z) 

                                                        Moles in gas
                                            ----------------------------------
Component         log P           P    phi     Initial       Final       Delta

CO2(g)             1.91   8.082e+01  0.858   0.000e+00   2.836e+00   2.836e+00
H2O(g)             0.70   5.065e+00  0.684   0.000e+00   1.778e-01   1.778e-01

-----------------------------Solution composition------------------------------

	Elements           Molality       Moles

	C                 3.648e-01   3.636e-01
	Na                2.007e+00   2.000e+00
	S                 1.003e+00   1.000e+00

----------------------------Description of solution----------------------------

                                       pH  =   4.770      Charge balance
                                       pe  =   4.000      Adjusted to redox equilibrium
       Specific Conductance (uS/cm, 140 oC) = 186179
                          Density (g/cm3)  =   1.04402
                        Activity of water  =   0.949
                           Ionic strength  =   3.000e+00
                       Mass of water (kg)  =   9.966e-01
                 Total alkalinity (eq/kg)  =   5.905e-12
                       Total CO2 (mol/kg)  =   3.648e-01
                      Temperature (deg C)  = 140.00
                           Pressure (atm)  = 85.88
                  Electrical balance (eq)  =   1.640e-09
 Percent error, 100*(Cat-|An|)/(Cat+|An|)  =   0.00
                               Iterations  =  51
                         Gamma iterations  =   6
                      Osmotic coefficient  =   0.85711
                         Density of water  =   0.92618
                                  Total H  = 1.106570e+02
                                  Total O  = 6.005564e+01

----------------------------Distribution of species----------------------------

                                                    MacInnes  MacInnes
                                MacInnes       Log       Log       Log    mole V
   Species          Molality    Activity  Molality  Activity     Gamma   cm3/mol

   H+              9.096e-05   1.700e-05    -4.041    -4.770    -0.728      0.00
   OH-             1.668e-07   1.116e-07    -6.778    -6.952    -0.174     -1.09
   H2O             5.551e+01   9.492e-01     1.744    -0.023     0.000     19.45
C(4)          3.648e-01
   CO2             3.543e-01   5.691e-01    -0.451    -0.245     0.206     19.67
   HCO3-           1.051e-02   6.813e-03    -1.979    -2.167    -0.188     29.42
   CO3-2           2.654e-07   1.987e-08    -6.576    -7.702    -1.126      0.57
Na            2.007e+00
   Na+             2.007e+00   8.288e-01     0.303    -0.082    -0.384      2.25
S(6)          1.003e+00
   SO4-2           9.930e-01   8.470e-02    -0.003    -1.072    -1.069     18.09
   HSO4-           1.042e-02   5.061e-03    -1.982    -2.296    -0.313     38.34

------------------------------Saturation indices-------------------------------

	Phase               SI   log IAP   log K(413 K,  86 atm)

	Burkeite         -9.67    -10.34   -0.66  Na6CO3(SO4)2
	CO2(g)            1.80     -0.24   -2.04  CO2	 Pressure  80.8 atm, phi 0.858.
	H2O(g)            0.54     -0.02   -0.56  H2O	 Pressure   5.1 atm, phi 0.684.
	Mirabilite        1.55     -1.46   -3.01  Na2SO4:10H2O
	Nahcolite        -1.81    -12.55  -10.75  NaHCO3
	Natron           -7.05     -8.09   -1.04  Na2CO3:10H2O
	Trona            -9.14    -20.46  -11.32  Na3H(CO3)2:2H2O


Reaction step 9.

Using solution 1.	
Using pure phase assemblage 1.	
Using gas phase 1.	
Using reaction 1.	

Reaction 1.	

	  3.600e+00 moles of the following reaction have been added:

	                 Relative
	Reactant            moles

	CO2                  1.00000

	                 Relative
	Element             moles
	C                    1.00000
	O                    2.00000

-----------------------------------Gas phase-----------------------------------

Total pressure: 95.10      atmospheres          (Peng-Robinson calculation)
    Gas volume:   1.00e+00 liters
  Molar volume:   2.95e-01 liters/mole
   P * Vm / RT:  0.82644  (Compressibility Factor Z) 

                                                        Moles in gas
                                            ----------------------------------
Component         log P           P    phi     Initial       Final       Delta

CO2(g)             1.95   8.980e+01  0.845   0.000e+00   3.205e+00   3.205e+00
H2O(g)             0.72   5.302e+00  0.657   0.000e+00   1.892e-01   1.892e-01

-----------------------------Solution composition------------------------------

	Elements           Molality       Moles

	C                 3.964e-01   3.950e-01
	Na                2.007e+00   2.000e+00
	S                 1.004e+00   1.000e+00

----------------------------Description of solution----------------------------

                                       pH  =   4.751      Charge balance
                                       pe  =   4.000      Adjusted to redox equilibrium
       Specific Conductance (uS/cm, 140 oC) = 187343
                          Density (g/cm3)  =   1.04458
                        Activity of water  =   0.948
                           Ionic strength  =   3.000e+00
                       Mass of water (kg)  =   9.964e-01
                 Total alkalinity (eq/kg)  =   6.296e-12
                       Total CO2 (mol/kg)  =   3.964e-01
                      Temperature (deg C)  = 140.00
                           Pressure (atm)  = 95.10
                  Electrical balance (eq)  =   1.639e-09
 Percent error, 100*(Cat-|An|)/(Cat+|An|)  =   0.00
                               Iterations  =  52
                         Gamma iterations  =   6
                      Osmotic coefficient  =   0.86243
                         Density of water  =   0.92618
                                  Total H  = 1.106341e+02
                                  Total O  = 6.010697e+01

----------------------------Distribution of species----------------------------

                                                    MacInnes  MacInnes
                                MacInnes       Log       Log       Log    mole V
   Species          Molality    Activity  Molality  Activity     Gamma   cm3/mol

   H+              9.496e-05   1.775e-05    -4.022    -4.751    -0.728      0.00
   OH-             1.605e-07   1.074e-07    -6.795    -6.969    -0.174     -1.04
   H2O             5.551e+01   9.484e-01     1.744    -0.023     0.000     19.45
C(4)          3.964e-01
   CO2             3.854e-01   6.191e-01    -0.414    -0.208     0.206     19.80
   HCO3-           1.097e-02   7.113e-03    -1.960    -2.148    -0.188     29.46
   CO3-2           2.674e-07   2.003e-08    -6.573    -7.698    -1.126      0.61
Na            2.007e+00
   Na+             2.007e+00   8.324e-01     0.303    -0.080    -0.382      2.27
S(6)          1.004e+00
   SO4-2           9.927e-01   8.512e-02    -0.003    -1.070    -1.067     18.15
   HSO4-           1.087e-02   5.283e-03    -1.964    -2.277    -0.313     38.31

------------------------------Saturation indices-------------------------------

	Phase               SI   log IAP   log K(413 K,  95 atm)

	Burkeite         -9.67    -10.32   -0.65  Na6CO3(SO4)2
	CO2(g)            1.83     -0.21   -2.04  CO2	 Pressure  89.8 atm, phi 0.845.
	H2O(g)            0.54     -0.02   -0.56  H2O	 Pressure   5.3 atm, phi 0.657.
	Mirabilite        1.55     -1.46   -3.01  Na2SO4:10H2O
	Nahcolite        -1.78    -12.53  -10.75  NaHCO3
	Natron           -7.02     -8.09   -1.07  Na2CO3:10H2O
	Trona            -9.12    -20.43  -11.31  Na3H(CO3)2:2H2O


Reaction step 10.

Using solution 1.	
Using pure phase assemblage 1.	
Using gas phase 1.	
Using reaction 1.	

Reaction 1.	

	  4.000e+00 moles of the following reaction have been added:

	                 Relative
	Reactant            moles

	CO2                  1.00000

	                 Relative
	Element             moles
	C                    1.00000
	O                    2.00000

-----------------------------------Gas phase-----------------------------------

Total pressure: 104.15      atmospheres          (Peng-Robinson calculation)
    Gas volume:   1.00e+00 liters
  Molar volume:   2.65e-01 liters/mole
   P * Vm / RT:  0.81338  (Compressibility Factor Z) 

                                                        Moles in gas
                                            ----------------------------------
Component         log P           P    phi     Initial       Final       Delta

CO2(g)             1.99   9.860e+01  0.832   0.000e+00   3.576e+00   3.576e+00
H2O(g)             0.74   5.546e+00  0.631   0.000e+00   2.011e-01   2.011e-01

-----------------------------Solution composition------------------------------

	Elements           Molality       Moles

	C                 4.259e-01   4.243e-01
	Na                2.008e+00   2.000e+00
	S                 1.004e+00   1.000e+00

----------------------------Description of solution----------------------------

                                       pH  =   4.735      Charge balance
                                       pe  =   4.000      Adjusted to redox equilibrium
       Specific Conductance (uS/cm, 140 oC) = 188436
                          Density (g/cm3)  =   1.04509
                        Activity of water  =   0.948
                           Ionic strength  =   3.000e+00
                       Mass of water (kg)  =   9.962e-01
                 Total alkalinity (eq/kg)  =   6.641e-12
                       Total CO2 (mol/kg)  =   4.259e-01
                      Temperature (deg C)  = 140.00
                           Pressure (atm)  = 104.15
                  Electrical balance (eq)  =   1.638e-09
 Percent error, 100*(Cat-|An|)/(Cat+|An|)  =   0.00
                               Iterations  =  53
                         Gamma iterations  =   6
                      Osmotic coefficient  =   0.86732
                         Density of water  =   0.92618
                                  Total H  = 1.106103e+02
                                  Total O  = 6.015375e+01

----------------------------Distribution of species----------------------------

                                                    MacInnes  MacInnes
                                MacInnes       Log       Log       Log    mole V
   Species          Molality    Activity  Molality  Activity     Gamma   cm3/mol

   H+              9.859e-05   1.843e-05    -4.006    -4.735    -0.728      0.00
   OH-             1.552e-07   1.039e-07    -6.809    -6.983    -0.174     -1.00
   H2O             5.551e+01   9.477e-01     1.744    -0.023     0.000     19.45
C(4)          4.259e-01
   CO2             4.146e-01   6.659e-01    -0.382    -0.177     0.206     19.92
   HCO3-           1.138e-02   7.384e-03    -1.944    -2.132    -0.188     29.51
   CO3-2           2.693e-07   2.018e-08    -6.570    -7.695    -1.125      0.64
Na            2.008e+00
   Na+             2.008e+00   8.358e-01     0.303    -0.078    -0.381      2.28
S(6)          1.004e+00
   SO4-2           9.926e-01   8.552e-02    -0.003    -1.068    -1.065     18.20
   HSO4-           1.128e-02   5.483e-03    -1.948    -2.261    -0.313     38.27

------------------------------Saturation indices-------------------------------

	Phase               SI   log IAP   log K(413 K, 104 atm)

	Burkeite         -9.66    -10.30   -0.64  Na6CO3(SO4)2
	CO2(g)            1.86     -0.18   -2.04  CO2	 Pressure  98.6 atm, phi 0.832.
	H2O(g)            0.54     -0.02   -0.57  H2O	 Pressure   5.5 atm, phi 0.631.
	Mirabilite        1.56     -1.46   -3.01  Na2SO4:10H2O
	Nahcolite        -1.76    -12.51  -10.75  NaHCO3
	Natron           -7.00     -8.08   -1.09  Na2CO3:10H2O
	Trona            -9.10    -20.40  -11.31  Na3H(CO3)2:2H2O


------------------
End of simulation.
------------------

------------------------------------
Reading input data for simulation 2.
------------------------------------

	SOLUTION 1
	 pH 7 charge
	 Na 4e3
	 S(6) 2e3
	 temp 140
	USE reaction 1
	 USE gas_phase 1
	 USE equilibrium_phases 1
	END
-------------------------------------------
Beginning of initial solution calculations.
-------------------------------------------

Initial solution 1.	

-----------------------------Solution composition------------------------------

	Elements           Molality       Moles

	Na                4.000e+00   4.000e+00
	S(6)              2.000e+00   2.000e+00

----------------------------Description of solution----------------------------

                                       pH  =   7.386      Charge balance
                                       pe  =   4.000    
       Specific Conductance (uS/cm, 140 oC) = 121706
                          Density (g/cm3)  =   1.12793
                        Activity of water  =   0.918
                           Ionic strength  =   6.000e+00
                       Mass of water (kg)  =   1.000e+00
                 Total alkalinity (eq/kg)  =   9.145e-13
                    Total carbon (mol/kg)  =   0.000e+00
                       Total CO2 (mol/kg)  =   0.000e+00
                      Temperature (deg C)  = 140.00
                  Electrical balance (eq)  =   1.180e-08
 Percent error, 100*(Cat-|An|)/(Cat+|An|)  =   0.00
                               Iterations  =  12
                         Gamma iterations  =   4
                      Osmotic coefficient  =   0.78809
                         Density of water  =   0.92618
                                  Total H  = 1.110125e+02
                                  Total O  = 6.350627e+01

----------------------------Distribution of species----------------------------

                                                    MacInnes  MacInnes
                                MacInnes       Log       Log       Log    mole V
   Species          Molality    Activity  Molality  Activity     Gamma   cm3/mol

   OH-             5.474e-05   4.238e-05    -4.262    -4.373    -0.111      5.22
   H+              2.800e-07   4.115e-08    -6.553    -7.386    -0.833      0.00
   H2O             5.551e+01   9.183e-01     1.744    -0.037     0.000     19.45
Na            4.000e+00
   Na+             4.000e+00   1.288e+00     0.602     0.110    -0.492      2.36
S(6)          2.000e+00
   SO4-2           2.000e+00   1.579e-01     0.301    -0.802    -1.103     24.63
   HSO4-           5.446e-05   2.402e-05    -4.264    -4.619    -0.355     41.00

------------------------------Saturation indices-------------------------------

	Phase               SI   log IAP   log K(413 K,   1 atm)

	H2O(g)            0.50     -0.04   -0.54  H2O
	Mirabilite        2.06     -0.95   -3.01  Na2SO4:10H2O


-----------------------------------------
Beginning of batch-reaction calculations.
-----------------------------------------

Reaction step 1.

WARNING: Numerical method failed, switching to numerical derivatives.
Using solution 1.	
Using pure phase assemblage 1.	
Using gas phase 1.	
Using reaction 1.	

Reaction 1.	

	  4.000e-01 moles of the following reaction have been added:

	                 Relative
	Reactant            moles

	CO2                  1.00000

	                 Relative
	Element             moles
	C                    1.00000
	O                    2.00000

-----------------------------------Gas phase-----------------------------------

Total pressure: 15.04      atmospheres          (Peng-Robinson calculation)
    Gas volume:   1.00e+00 liters
  Molar volume:   2.17e+00 liters/mole
   P * Vm / RT:  0.96273  (Compressibility Factor Z) 

                                                        Moles in gas
                                            ----------------------------------
Component         log P           P    phi     Initial       Final       Delta

CO2(g)             1.06   1.157e+01  0.975   0.000e+00   3.544e-01   3.544e-01
H2O(g)             0.54   3.469e+00  0.927   0.000e+00   1.063e-01   1.063e-01

-----------------------------Solution composition------------------------------

	Elements           Molality       Moles

	C                 4.568e-02   4.559e-02
	Na                4.008e+00   4.000e+00
	S                 2.004e+00   2.000e+00

----------------------------Description of solution----------------------------

                                       pH  =   5.404      Charge balance
                                       pe  =   4.000      Adjusted to redox equilibrium
       Specific Conductance (uS/cm, 140 oC) = 123531
                          Density (g/cm3)  =   1.12903
                        Activity of water  =   0.917
                           Ionic strength  =   6.007e+00
                       Mass of water (kg)  =   9.980e-01
                 Total alkalinity (eq/kg)  =   1.293e-11
                       Total CO2 (mol/kg)  =   4.568e-02
                      Temperature (deg C)  = 140.00
                           Pressure (atm)  = 15.04
                  Electrical balance (eq)  =   1.176e-08
 Percent error, 100*(Cat-|An|)/(Cat+|An|)  =   0.00
                               Iterations  = 138
                         Gamma iterations  =   6
                      Osmotic coefficient  =   0.79464
                         Density of water  =   0.92618
                                  Total H  = 1.108000e+02
                                  Total O  = 6.349119e+01

----------------------------Distribution of species----------------------------

                                                    MacInnes  MacInnes
                                MacInnes       Log       Log       Log    mole V
   Species          Molality    Activity  Molality  Activity     Gamma   cm3/mol

   H+              2.678e-05   3.949e-06    -4.572    -5.404    -0.831      0.00
   OH-             5.723e-07   4.436e-07    -6.242    -6.353    -0.111      5.29
   H2O             5.551e+01   9.169e-01     1.744    -0.038     0.000     19.45
C(4)          4.568e-02
   CO2             4.045e-02   9.644e-02    -1.393    -1.016     0.377     18.67
   HCO3-           5.232e-03   4.687e-03    -2.281    -2.329    -0.048     37.61
   CO3-2           5.676e-07   5.549e-08    -6.246    -7.256    -1.010      5.30
Na            4.008e+00
   Na+             4.008e+00   1.297e+00     0.603     0.113    -0.490      2.38
S(6)          2.004e+00
   SO4-2           1.999e+00   1.584e-01     0.301    -0.800    -1.101     24.64
   HSO4-           5.206e-03   2.297e-03    -2.283    -2.639    -0.355     40.92

------------------------------Saturation indices-------------------------------

	Phase               SI   log IAP   log K(413 K,  15 atm)

	Burkeite         -7.42     -8.18   -0.76  Na6CO3(SO4)2
	CO2(g)            1.05     -1.02   -2.06  CO2	 Pressure  11.6 atm, phi 0.975.
	H2O(g)            0.51     -0.04   -0.54  H2O	 Pressure   3.5 atm, phi 0.927.
	Mirabilite        2.06     -0.95   -3.01  Na2SO4:10H2O
	Nahcolite        -1.80    -12.55  -10.74  NaHCO3
	Natron           -6.54     -7.41   -0.86  Na2CO3:10H2O
	Trona            -8.28    -19.65  -11.38  Na3H(CO3)2:2H2O


Reaction step 2.

Using solution 1.	
Using pure phase assemblage 1.	
Using gas phase 1.	
Using reaction 1.	

Reaction 1.	

	  8.000e-01 moles of the following reaction have been added:

	                 Relative
	Reactant            moles

	CO2                  1.00000

	                 Relative
	Element             moles
	C                    1.00000
	O                    2.00000

-----------------------------------Gas phase-----------------------------------

Total pressure: 26.50      atmospheres          (Peng-Robinson calculation)
    Gas volume:   1.00e+00 liters
  Molar volume:   1.21e+00 liters/mole
   P * Vm / RT:  0.94218  (Compressibility Factor Z) 

                                                        Moles in gas
                                            ----------------------------------
Component         log P           P    phi     Initial       Final       Delta

CO2(g)             1.36   2.285e+01  0.954   0.000e+00   7.153e-01   7.153e-01
H2O(g)             0.56   3.657e+00  0.884   0.000e+00   1.145e-01   1.145e-01

-----------------------------Solution composition------------------------------

	Elements           Molality       Moles

	C                 8.491e-02   8.473e-02
	Na                4.009e+00   4.000e+00
	S                 2.004e+00   2.000e+00

----------------------------Description of solution----------------------------

                                       pH  =   5.262      Charge balance
                                       pe  =   4.000      Adjusted to redox equilibrium
       Specific Conductance (uS/cm, 140 oC) = 124885
                          Density (g/cm3)  =   1.12975
                        Activity of water  =   0.916
                           Ionic strength  =   6.006e+00
                       Mass of water (kg)  =   9.978e-01
                 Total alkalinity (eq/kg)  =   2.205e-11
                       Total CO2 (mol/kg)  =   8.491e-02
                      Temperature (deg C)  = 140.00
                           Pressure (atm)  = 26.50
                  Electrical balance (eq)  =   1.173e-08
 Percent error, 100*(Cat-|An|)/(Cat+|An|)  =   0.00
                               Iterations  =  42
                         Gamma iterations  =   6
                      Osmotic coefficient  =   0.80045
                         Density of water  =   0.92618
                                  Total H  = 1.107836e+02
                                  Total O  = 6.356124e+01

----------------------------Distribution of species----------------------------

                                                    MacInnes  MacInnes
                                MacInnes       Log       Log       Log    mole V
   Species          Molality    Activity  Molality  Activity     Gamma   cm3/mol

   H+              3.708e-05   5.473e-06    -4.431    -5.262    -0.831      0.00
   OH-             4.141e-07   3.212e-07    -6.383    -6.493    -0.110      5.33
   H2O             5.551e+01   9.158e-01     1.744    -0.038     0.000     19.45
C(4)          8.491e-02
   CO2             7.767e-02   1.852e-01    -1.110    -0.732     0.377     18.83
   HCO3-           7.237e-03   6.487e-03    -2.140    -2.188    -0.047     37.64
   CO3-2           5.729e-07   5.602e-08    -6.242    -7.252    -1.010      5.28
Na            4.009e+00
   Na+             4.009e+00   1.303e+00     0.603     0.115    -0.488      2.39
S(6)          2.004e+00
   SO4-2           1.997e+00   1.589e-01     0.300    -0.799    -1.099     24.64
   HSO4-           7.201e-03   3.178e-03    -2.143    -2.498    -0.355     40.86

------------------------------Saturation indices-------------------------------

	Phase               SI   log IAP   log K(413 K,  27 atm)

	Burkeite         -7.41     -8.16   -0.74  Na6CO3(SO4)2
	CO2(g)            1.33     -0.73   -2.06  CO2	 Pressure  22.8 atm, phi 0.954.
	H2O(g)            0.51     -0.04   -0.55  H2O	 Pressure   3.7 atm, phi 0.884.
	Mirabilite        2.06     -0.95   -3.02  Na2SO4:10H2O
	Nahcolite        -1.65    -12.40  -10.74  NaHCO3
	Natron           -6.51     -7.40   -0.89  Na2CO3:10H2O
	Trona            -8.13    -19.50  -11.37  Na3H(CO3)2:2H2O


Reaction step 3.

Using solution 1.	
Using pure phase assemblage 1.	
Using gas phase 1.	
Using reaction 1.	

Reaction 1.	

	  1.200e+00 moles of the following reaction have been added:

	                 Relative
	Reactant            moles

	CO2                  1.00000

	                 Relative
	Element             moles
	C                    1.00000
	O                    2.00000

-----------------------------------Gas phase-----------------------------------

Total pressure: 37.61      atmospheres          (Peng-Robinson calculation)
    Gas volume:   1.00e+00 liters
  Molar volume:   8.31e-01 liters/mole
   P * Vm / RT:  0.92221  (Compressibility Factor Z) 

                                                        Moles in gas
                                            ----------------------------------
Component         log P           P    phi     Initial       Final       Delta

CO2(g)             1.53   3.376e+01  0.934   0.000e+00   1.080e+00   1.080e+00
H2O(g)             0.59   3.850e+00  0.844   0.000e+00   1.231e-01   1.231e-01

-----------------------------Solution composition------------------------------

	Elements           Molality       Moles

	C                 1.204e-01   1.201e-01
	Na                4.010e+00   4.000e+00
	S                 2.005e+00   2.000e+00

----------------------------Description of solution----------------------------

                                       pH  =   5.183      Charge balance
                                       pe  =   4.000      Adjusted to redox equilibrium
       Specific Conductance (uS/cm, 140 oC) = 126050
                          Density (g/cm3)  =   1.13039
                        Activity of water  =   0.915
                           Ionic strength  =   6.006e+00
                       Mass of water (kg)  =   9.976e-01
                 Total alkalinity (eq/kg)  =   3.117e-11
                       Total CO2 (mol/kg)  =   1.204e-01
                      Temperature (deg C)  = 140.00
                           Pressure (atm)  = 37.61
                  Electrical balance (eq)  =   1.171e-08
 Percent error, 100*(Cat-|An|)/(Cat+|An|)  =   0.00
                               Iterations  =  40
                         Gamma iterations  =   6
                      Osmotic coefficient  =   0.80565
                         Density of water  =   0.92618
                                  Total H  = 1.107662e+02
                                  Total O  = 6.362338e+01

----------------------------Distribution of species----------------------------

                                                    MacInnes  MacInnes
                                MacInnes       Log       Log       Log    mole V
   Species          Molality    Activity  Molality  Activity     Gamma   cm3/mol

   H+              4.446e-05   6.566e-06    -4.352    -5.183    -0.831      0.00
   OH-             3.462e-07   2.686e-07    -6.461    -6.571    -0.110      5.37
   H2O             5.551e+01   9.148e-01     1.744    -0.039     0.000     19.45
C(4)          1.204e-01
   CO2             1.117e-01   2.664e-01    -0.952    -0.575     0.377     18.99
   HCO3-           8.667e-03   7.772e-03    -2.062    -2.109    -0.047     37.68
   CO3-2           5.781e-07   5.655e-08    -6.238    -7.248    -1.010      5.26
Na            4.010e+00
   Na+             4.010e+00   1.309e+00     0.603     0.117    -0.486      2.41
S(6)          2.005e+00
   SO4-2           1.996e+00   1.595e-01     0.300    -0.797    -1.097     24.64
   HSO4-           8.624e-03   3.806e-03    -2.064    -2.420    -0.355     40.79

------------------------------Saturation indices-------------------------------

	Phase               SI   log IAP   log K(413 K,  38 atm)

	Burkeite         -7.41     -8.14   -0.73  Na6CO3(SO4)2
	CO2(g)            1.48     -0.57   -2.06  CO2	 Pressure  33.8 atm, phi 0.934.
	H2O(g)            0.51     -0.04   -0.55  H2O	 Pressure   3.9 atm, phi 0.844.
	Mirabilite        2.07     -0.95   -3.02  Na2SO4:10H2O
	Nahcolite        -1.57    -12.31  -10.75  NaHCO3
	Natron           -6.48     -7.40   -0.92  Na2CO3:10H2O
	Trona            -8.04    -19.40  -11.36  Na3H(CO3)2:2H2O


Reaction step 4.

Using solution 1.	
Using pure phase assemblage 1.	
Using gas phase 1.	
Using reaction 1.	

Reaction 1.	

	  1.600e+00 moles of the following reaction have been added:

	                 Relative
	Reactant            moles

	CO2                  1.00000

	                 Relative
	Element             moles
	C                    1.00000
	O                    2.00000

-----------------------------------Gas phase-----------------------------------

Total pressure: 48.38      atmospheres          (Peng-Robinson calculation)
    Gas volume:   1.00e+00 liters
  Molar volume:   6.33e-01 liters/mole
   P * Vm / RT:  0.90316  (Compressibility Factor Z) 

                                                        Moles in gas
                                            ----------------------------------
Component         log P           P    phi     Initial       Final       Delta

CO2(g)             1.65   4.433e+01  0.916   0.000e+00   1.448e+00   1.448e+00
H2O(g)             0.61   4.050e+00  0.807   0.000e+00   1.323e-01   1.323e-01

-----------------------------Solution composition------------------------------

	Elements           Molality       Moles

	C                 1.528e-01   1.524e-01
	Na                4.010e+00   4.000e+00
	S                 2.005e+00   2.000e+00

----------------------------Description of solution----------------------------

                                       pH  =   5.129      Charge balance
                                       pe  =   4.000      Adjusted to redox equilibrium
       Specific Conductance (uS/cm, 140 oC) = 127085
                          Density (g/cm3)  =   1.13096
                        Activity of water  =   0.914
                           Ionic strength  =   6.006e+00
                       Mass of water (kg)  =   9.974e-01
                 Total alkalinity (eq/kg)  =   4.014e-11
                       Total CO2 (mol/kg)  =   1.528e-01
                      Temperature (deg C)  = 140.00
                           Pressure (atm)  = 48.38
                  Electrical balance (eq)  =   1.168e-08
 Percent error, 100*(Cat-|An|)/(Cat+|An|)  =   0.00
                               Iterations  =  42
                         Gamma iterations  =   6
                      Osmotic coefficient  =   0.81033
                         Density of water  =   0.92618
                                  Total H  = 1.107480e+02
                                  Total O  = 6.367876e+01

----------------------------Distribution of species----------------------------

                                                    MacInnes  MacInnes
                                MacInnes       Log       Log       Log    mole V
   Species          Molality    Activity  Molality  Activity     Gamma   cm3/mol

   H+              5.028e-05   7.430e-06    -4.299    -5.129    -0.830      0.00
   OH-             3.069e-07   2.382e-07    -6.513    -6.623    -0.110      5.41
   H2O             5.551e+01   9.139e-01     1.744    -0.039     0.000     19.45
C(4)          1.528e-01
   CO2             1.430e-01   3.408e-01    -0.845    -0.467     0.377     19.15
   HCO3-           9.790e-03   8.784e-03    -2.009    -2.056    -0.047     37.72
   CO3-2           5.832e-07   5.707e-08    -6.234    -7.244    -1.009      5.24
Na            4.010e+00
   Na+             4.010e+00   1.314e+00     0.603     0.118    -0.485      2.42
S(6)          2.005e+00
   SO4-2           1.995e+00   1.601e-01     0.300    -0.796    -1.096     24.65
   HSO4-           9.741e-03   4.300e-03    -2.011    -2.367    -0.355     40.74

------------------------------Saturation indices-------------------------------

	Phase               SI   log IAP   log K(413 K,  48 atm)

	Burkeite         -7.40     -8.12   -0.72  Na6CO3(SO4)2
	CO2(g)            1.59     -0.47   -2.06  CO2	 Pressure  44.3 atm, phi 0.916.
	H2O(g)            0.51     -0.04   -0.55  H2O	 Pressure   4.0 atm, phi 0.807.
	Mirabilite        2.07     -0.95   -3.02  Na2SO4:10H2O
	Nahcolite        -1.51    -12.25  -10.75  NaHCO3
	Natron           -6.45     -7.40   -0.95  Na2CO3:10H2O
	Trona            -7.99    -19.34  -11.35  Na3H(CO3)2:2H2O


Reaction step 5.

Using solution 1.	
Using pure phase assemblage 1.	
Using gas phase 1.	
Using reaction 1.	

Reaction 1.	

	  2.000e+00 moles of the following reaction have been added:

	                 Relative
	Reactant            moles

	CO2                  1.00000

	                 Relative
	Element             moles
	C                    1.00000
	O                    2.00000

-----------------------------------Gas phase-----------------------------------

Total pressure: 58.81      atmospheres          (Peng-Robinson calculation)
    Gas volume:   1.00e+00 liters
  Molar volume:   5.10e-01 liters/mole
   P * Vm / RT:  0.88512  (Compressibility Factor Z) 

                                                        Moles in gas
                                            ----------------------------------
Component         log P           P    phi     Initial       Final       Delta

CO2(g)             1.74   5.456e+01  0.899   0.000e+00   1.818e+00   1.818e+00
H2O(g)             0.63   4.256e+00  0.771   0.000e+00   1.418e-01   1.418e-01

-----------------------------Solution composition------------------------------

	Elements           Molality       Moles

	C                 1.824e-01   1.819e-01
	Na                4.011e+00   4.000e+00
	S                 2.006e+00   2.000e+00

----------------------------Description of solution----------------------------

                                       pH  =   5.089      Charge balance
                                       pe  =   4.000      Adjusted to redox equilibrium
       Specific Conductance (uS/cm, 140 oC) = 128018
                          Density (g/cm3)  =   1.13148
                        Activity of water  =   0.913
                           Ionic strength  =   6.006e+00
                       Mass of water (kg)  =   9.973e-01
                 Total alkalinity (eq/kg)  =   4.877e-11
                       Total CO2 (mol/kg)  =   1.824e-01
                      Temperature (deg C)  = 140.00
                           Pressure (atm)  = 58.81
                  Electrical balance (eq)  =   1.166e-08
 Percent error, 100*(Cat-|An|)/(Cat+|An|)  =   0.00
                               Iterations  =  45
                         Gamma iterations  =   6
                      Osmotic coefficient  =   0.81458
                         Density of water  =   0.92618
                                  Total H  = 1.107289e+02
                                  Total O  = 6.372822e+01

----------------------------Distribution of species----------------------------

                                                    MacInnes  MacInnes
                                MacInnes       Log       Log       Log    mole V
   Species          Molality    Activity  Molality  Activity     Gamma   cm3/mol

   H+              5.510e-05   8.145e-06    -4.259    -5.089    -0.830      0.00
   OH-             2.808e-07   2.180e-07    -6.552    -6.661    -0.110      5.45
   H2O             5.551e+01   9.130e-01     1.744    -0.040     0.000     19.45
C(4)          1.824e-01
   CO2             1.717e-01   4.092e-01    -0.765    -0.388     0.377     19.29
   HCO3-           1.071e-02   9.616e-03    -1.970    -2.017    -0.047     37.76
   CO3-2           5.881e-07   5.757e-08    -6.231    -7.240    -1.009      5.22
Na            4.011e+00
   Na+             4.011e+00   1.318e+00     0.603     0.120    -0.483      2.43
S(6)          2.006e+00
   SO4-2           1.995e+00   1.606e-01     0.300    -0.794    -1.094     24.65
   HSO4-           1.066e-02   4.706e-03    -1.972    -2.327    -0.355     40.68

------------------------------Saturation indices-------------------------------

	Phase               SI   log IAP   log K(413 K,  59 atm)

	Burkeite         -7.40     -8.11   -0.71  Na6CO3(SO4)2
	CO2(g)            1.67     -0.39   -2.05  CO2	 Pressure  54.6 atm, phi 0.899.
	H2O(g)            0.52     -0.04   -0.56  H2O	 Pressure   4.3 atm, phi 0.771.
	Mirabilite        2.07     -0.95   -3.02  Na2SO4:10H2O
	Nahcolite        -1.46    -12.21  -10.75  NaHCO3
	Natron           -6.42     -7.39   -0.98  Na2CO3:10H2O
	Trona            -7.94    -19.29  -11.35  Na3H(CO3)2:2H2O


Reaction step 6.

Using solution 1.	
Using pure phase assemblage 1.	
Using gas phase 1.	
Using reaction 1.	

Reaction 1.	

	  2.400e+00 moles of the following reaction have been added:

	                 Relative
	Reactant            moles

	CO2                  1.00000

	                 Relative
	Element             moles
	C                    1.00000
	O                    2.00000

-----------------------------------Gas phase-----------------------------------

Total pressure: 68.95      atmospheres          (Peng-Robinson calculation)
    Gas volume:   1.00e+00 liters
  Molar volume:   4.27e-01 liters/mole
   P * Vm / RT:  0.86810  (Compressibility Factor Z) 

                                                        Moles in gas
                                            ----------------------------------
Component         log P           P    phi     Initial       Final       Delta

CO2(g)             1.81   6.448e+01  0.883   0.000e+00   2.191e+00   2.191e+00
H2O(g)             0.65   4.469e+00  0.738   0.000e+00   1.519e-01   1.519e-01

-----------------------------Solution composition------------------------------

	Elements           Molality       Moles

	C                 2.096e-01   2.090e-01
	Na                4.012e+00   4.000e+00
	S                 2.006e+00   2.000e+00

----------------------------Description of solution----------------------------

                                       pH  =   5.058      Charge balance
                                       pe  =   4.000      Adjusted to redox equilibrium
       Specific Conductance (uS/cm, 140 oC) = 128865
                          Density (g/cm3)  =   1.13195
                        Activity of water  =   0.912
                           Ionic strength  =   6.006e+00
                       Mass of water (kg)  =   9.971e-01
                 Total alkalinity (eq/kg)  =   5.689e-11
                       Total CO2 (mol/kg)  =   2.096e-01
                      Temperature (deg C)  = 140.00
                           Pressure (atm)  = 68.95
                  Electrical balance (eq)  =   1.164e-08
 Percent error, 100*(Cat-|An|)/(Cat+|An|)  =   0.00
                               Iterations  =  46
                         Gamma iterations  =   6
                      Osmotic coefficient  =   0.81844
                         Density of water  =   0.92618
                                  Total H  = 1.107088e+02
                                  Total O  = 6.377241e+01

----------------------------Distribution of species----------------------------

                                                    MacInnes  MacInnes
                                MacInnes       Log       Log       Log    mole V
   Species          Molality    Activity  Molality  Activity     Gamma   cm3/mol

   H+              5.920e-05   8.754e-06    -4.228    -5.058    -0.830      0.00
   OH-             2.620e-07   2.035e-07    -6.582    -6.691    -0.110      5.49
   H2O             5.551e+01   9.123e-01     1.744    -0.040     0.000     19.45
C(4)          2.096e-01
   CO2             1.981e-01   4.723e-01    -0.703    -0.326     0.377     19.44
   HCO3-           1.150e-02   1.032e-02    -1.939    -1.986    -0.047     37.80
   CO3-2           5.929e-07   5.807e-08    -6.227    -7.236    -1.009      5.21
Na            4.012e+00
   Na+             4.012e+00   1.322e+00     0.603     0.121    -0.482      2.45
S(6)          2.006e+00
   SO4-2           1.994e+00   1.611e-01     0.300    -0.793    -1.093     24.65
   HSO4-           1.144e-02   5.050e-03    -1.942    -2.297    -0.355     40.62

------------------------------Saturation indices-------------------------------

	Phase               SI   log IAP   log K(413 K,  69 atm)

	Burkeite         -7.39     -8.09   -0.70  Na6CO3(SO4)2
	CO2(g)            1.73     -0.33   -2.05  CO2	 Pressure  64.5 atm, phi 0.883.
	H2O(g)            0.52     -0.04   -0.56  H2O	 Pressure   4.5 atm, phi 0.738.
	Mirabilite        2.07     -0.95   -3.02  Na2SO4:10H2O
	Nahcolite        -1.42    -12.17  -10.75  NaHCO3
	Natron           -6.39     -7.39   -1.00  Na2CO3:10H2O
	Trona            -7.90    -19.25  -11.34  Na3H(CO3)2:2H2O


Reaction step 7.

Using solution 1.	
Using pure phase assemblage 1.	
Using gas phase 1.	
Using reaction 1.	

Reaction 1.	

	  2.800e+00 moles of the following reaction have been added:

	                 Relative
	Reactant            moles

	CO2                  1.00000

	                 Relative
	Element             moles
	C                    1.00000
	O                    2.00000

-----------------------------------Gas phase-----------------------------------

Total pressure: 78.82      atmospheres          (Peng-Robinson calculation)
    Gas volume:   1.00e+00 liters
  Molar volume:   3.67e-01 liters/mole
   P * Vm / RT:  0.85210  (Compressibility Factor Z) 

                                                        Moles in gas
                                            ----------------------------------
Component         log P           P    phi     Initial       Final       Delta

CO2(g)             1.87   7.413e+01  0.868   0.000e+00   2.566e+00   2.566e+00
H2O(g)             0.67   4.689e+00  0.707   0.000e+00   1.623e-01   1.623e-01

-----------------------------Solution composition------------------------------

	Elements           Molality       Moles

	C                 2.347e-01   2.340e-01
	Na                4.013e+00   4.000e+00
	S                 2.006e+00   2.000e+00

----------------------------Description of solution----------------------------

                                       pH  =   5.032      Charge balance
                                       pe  =   4.000      Adjusted to redox equilibrium
       Specific Conductance (uS/cm, 140 oC) = 129640
                          Density (g/cm3)  =   1.13237
                        Activity of water  =   0.912
                           Ionic strength  =   6.007e+00
                       Mass of water (kg)  =   9.969e-01
                 Total alkalinity (eq/kg)  =   5.955e-12
                       Total CO2 (mol/kg)  =   2.347e-01
                      Temperature (deg C)  = 140.00
                           Pressure (atm)  = 78.82
                  Electrical balance (eq)  =   1.178e-08
 Percent error, 100*(Cat-|An|)/(Cat+|An|)  =   0.00
                               Iterations  =  48
                         Gamma iterations  =   6
                      Osmotic coefficient  =   0.82197
                         Density of water  =   0.92618
                                  Total H  = 1.106879e+02
                                  Total O  = 6.381191e+01

----------------------------Distribution of species----------------------------

                                                    MacInnes  MacInnes
                                MacInnes       Log       Log       Log    mole V
   Species          Molality    Activity  Molality  Activity     Gamma   cm3/mol

   H+              6.277e-05   9.283e-06    -4.202    -5.032    -0.830      0.00
   OH-             2.478e-07   1.925e-07    -6.606    -6.715    -0.110      5.53
   H2O             5.551e+01   9.116e-01     1.744    -0.040     0.000     19.45
C(4)          2.347e-01
   CO2             2.225e-01   5.306e-01    -0.653    -0.275     0.377     19.57
   HCO3-           1.217e-02   1.093e-02    -1.915    -1.961    -0.047     37.83
   CO3-2           5.976e-07   5.855e-08    -6.224    -7.232    -1.009      5.19
Na            4.013e+00
   Na+             4.013e+00   1.326e+00     0.603     0.123    -0.481      2.46
S(6)          2.006e+00
   SO4-2           1.994e+00   1.616e-01     0.300    -0.792    -1.091     24.65
   HSO4-           1.211e-02   5.347e-03    -1.917    -2.272    -0.355     40.57

------------------------------Saturation indices-------------------------------

	Phase               SI   log IAP   log K(413 K,  79 atm)

	Burkeite         -7.39     -8.08   -0.69  Na6CO3(SO4)2
	CO2(g)            1.78     -0.28   -2.05  CO2	 Pressure  74.1 atm, phi 0.868.
	H2O(g)            0.52     -0.04   -0.56  H2O	 Pressure   4.7 atm, phi 0.707.
	Mirabilite        2.07     -0.95   -3.02  Na2SO4:10H2O
	Nahcolite        -1.39    -12.14  -10.75  NaHCO3
	Natron           -6.36     -7.39   -1.03  Na2CO3:10H2O
	Trona            -7.87    -19.21  -11.33  Na3H(CO3)2:2H2O


Reaction step 8.

Using solution 1.	
Using pure phase assemblage 1.	
Using gas phase 1.	
Using reaction 1.	

Reaction 1.	

	  3.200e+00 moles of the following reaction have been added:

	                 Relative
	Reactant            moles

	CO2                  1.00000

	                 Relative
	Element             moles
	C                    1.00000
	O                    2.00000

-----------------------------------Gas phase-----------------------------------

Total pressure: 88.44      atmospheres          (Peng-Robinson calculation)
    Gas volume:   1.00e+00 liters
  Molar volume:   3.21e-01 liters/mole
   P * Vm / RT:  0.83710  (Compressibility Factor Z) 

                                                        Moles in gas
                                            ----------------------------------
Component         log P           P    phi     Initial       Final       Delta

CO2(g)             1.92   8.352e+01  0.854   0.000e+00   2.943e+00   2.943e+00
H2O(g)             0.69   4.917e+00  0.678   0.000e+00   1.732e-01   1.732e-01

-----------------------------Solution composition------------------------------

	Elements           Molality       Moles

	C                 2.580e-01   2.571e-01
	Na                4.013e+00   4.000e+00
	S                 2.007e+00   2.000e+00

----------------------------Description of solution----------------------------

                                       pH  =   5.011      Charge balance
                                       pe  =   4.000      Adjusted to redox equilibrium
       Specific Conductance (uS/cm, 140 oC) = 130352
                          Density (g/cm3)  =   1.13276
                        Activity of water  =   0.911
                           Ionic strength  =   6.008e+00
                       Mass of water (kg)  =   9.967e-01
                 Total alkalinity (eq/kg)  =   6.297e-12
                       Total CO2 (mol/kg)  =   2.580e-01
                      Temperature (deg C)  = 140.00
                           Pressure (atm)  = 88.44
                  Electrical balance (eq)  =   1.178e-08
 Percent error, 100*(Cat-|An|)/(Cat+|An|)  =   0.00
                               Iterations  =  51
                         Gamma iterations  =   6
                      Osmotic coefficient  =   0.82521
                         Density of water  =   0.92618
                                  Total H  = 1.106661e+02
                                  Total O  = 6.384722e+01

----------------------------Distribution of species----------------------------

                                                    MacInnes  MacInnes
                                MacInnes       Log       Log       Log    mole V
   Species          Molality    Activity  Molality  Activity     Gamma   cm3/mol

   H+              6.591e-05   9.750e-06    -4.181    -5.011    -0.830      0.00
   OH-             2.366e-07   1.839e-07    -6.626    -6.735    -0.109      5.56
   H2O             5.551e+01   9.109e-01     1.744    -0.041     0.000     19.45
C(4)          2.580e-01
   CO2             2.452e-01   5.846e-01    -0.610    -0.233     0.377     19.71
   HCO3-           1.276e-02   1.147e-02    -1.894    -1.941    -0.046     37.87
   CO3-2           6.022e-07   5.902e-08    -6.220    -7.229    -1.009      5.17
Na            4.013e+00
   Na+             4.013e+00   1.330e+00     0.604     0.124    -0.480      2.47
S(6)          2.007e+00
   SO4-2           1.994e+00   1.620e-01     0.300    -0.790    -1.090     24.66
   HSO4-           1.270e-02   5.607e-03    -1.896    -2.251    -0.355     40.52

------------------------------Saturation indices-------------------------------

	Phase               SI   log IAP   log K(413 K,  88 atm)

	Burkeite         -7.39     -8.07   -0.68  Na6CO3(SO4)2
	CO2(g)            1.82     -0.23   -2.05  CO2	 Pressure  83.5 atm, phi 0.854.
	H2O(g)            0.52     -0.04   -0.56  H2O	 Pressure   4.9 atm, phi 0.678.
	Mirabilite        2.07     -0.95   -3.02  Na2SO4:10H2O
	Nahcolite        -1.37    -12.12  -10.75  NaHCO3
	Natron           -6.33     -7.39   -1.05  Na2CO3:10H2O
	Trona            -7.85    -19.18  -11.33  Na3H(CO3)2:2H2O


Reaction step 9.

Using solution 1.	
Using pure phase assemblage 1.	
Using gas phase 1.	
Using reaction 1.	

Reaction 1.	

	  3.600e+00 moles of the following reaction have been added:

	                 Relative
	Reactant            moles

	CO2                  1.00000

	                 Relative
	Element             moles
	C                    1.00000
	O                    2.00000

-----------------------------------Gas phase-----------------------------------

Total pressure: 97.84      atmospheres          (Peng-Robinson calculation)
    Gas volume:   1.00e+00 liters
  Molar volume:   2.85e-01 liters/mole
   P * Vm / RT:  0.82309  (Compressibility Factor Z) 

                                                        Moles in gas
                                            ----------------------------------
Component         log P           P    phi     Initial       Final       Delta

CO2(g)             1.97   9.269e+01  0.841   0.000e+00   3.321e+00   3.321e+00
H2O(g)             0.71   5.151e+00  0.650   0.000e+00   1.846e-01   1.846e-01

-----------------------------Solution composition------------------------------

	Elements           Molality       Moles

	C                 2.796e-01   2.786e-01
	Na                4.014e+00   4.000e+00
	S                 2.007e+00   2.000e+00

----------------------------Description of solution----------------------------

                                       pH  =   4.993      Charge balance
                                       pe  =   4.000      Adjusted to redox equilibrium
       Specific Conductance (uS/cm, 140 oC) = 131009
                          Density (g/cm3)  =   1.13311
                        Activity of water  =   0.910
                           Ionic strength  =   6.008e+00
                       Mass of water (kg)  =   9.964e-01
                 Total alkalinity (eq/kg)  =   6.594e-12
                       Total CO2 (mol/kg)  =   2.796e-01
                      Temperature (deg C)  = 140.00
                           Pressure (atm)  = 97.84
                  Electrical balance (eq)  =   1.178e-08
 Percent error, 100*(Cat-|An|)/(Cat+|An|)  =   0.00
                               Iterations  =  48
                         Gamma iterations  =   6
                      Osmotic coefficient  =   0.82819
                         Density of water  =   0.92618
                                  Total H  = 1.106433e+02
                                  Total O  = 6.387879e+01

----------------------------Distribution of species----------------------------

                                                    MacInnes  MacInnes
                                MacInnes       Log       Log       Log    mole V
   Species          Molality    Activity  Molality  Activity     Gamma   cm3/mol

   H+              6.873e-05   1.017e-05    -4.163    -4.993    -0.830      0.00
   OH-             2.275e-07   1.769e-07    -6.643    -6.752    -0.109      5.60
   H2O             5.551e+01   9.103e-01     1.744    -0.041     0.000     19.45
C(4)          2.796e-01
   CO2             2.663e-01   6.349e-01    -0.575    -0.197     0.377     19.84
   HCO3-           1.328e-02   1.194e-02    -1.877    -1.923    -0.046     37.90
   CO3-2           6.067e-07   5.949e-08    -6.217    -7.226    -1.009      5.16
Na            4.014e+00
   Na+             4.014e+00   1.334e+00     0.604     0.125    -0.479      2.48
S(6)          2.007e+00
   SO4-2           1.994e+00   1.624e-01     0.300    -0.789    -1.089     24.66
   HSO4-           1.322e-02   5.837e-03    -1.879    -2.234    -0.355     40.47

------------------------------Saturation indices-------------------------------

	Phase               SI   log IAP   log K(413 K,  98 atm)

	Burkeite         -7.38     -8.05   -0.67  Na6CO3(SO4)2
	CO2(g)            1.85     -0.20   -2.05  CO2	 Pressure  92.7 atm, phi 0.841.
	H2O(g)            0.52     -0.04   -0.57  H2O	 Pressure   5.2 atm, phi 0.650.
	Mirabilite        2.07     -0.95   -3.02  Na2SO4:10H2O
	Nahcolite        -1.34    -12.09  -10.75  NaHCO3
	Natron           -6.30     -7.38   -1.08  Na2CO3:10H2O
	Trona            -7.83    -19.15  -11.32  Na3H(CO3)2:2H2O


Reaction step 10.

Using solution 1.	
Using pure phase assemblage 1.	
Using gas phase 1.	
Using reaction 1.	

Reaction 1.	

	  4.000e+00 moles of the following reaction have been added:

	                 Relative
	Reactant            moles

	CO2                  1.00000

	                 Relative
	Element             moles
	C                    1.00000
	O                    2.00000

-----------------------------------Gas phase-----------------------------------

Total pressure: 107.05      atmospheres          (Peng-Robinson calculation)
    Gas volume:   1.00e+00 liters
  Molar volume:   2.57e-01 liters/mole
   P * Vm / RT:  0.81006  (Compressibility Factor Z) 

                                                        Moles in gas
                                            ----------------------------------
Component         log P           P    phi     Initial       Final       Delta

CO2(g)             2.01   1.017e+02  0.828   0.000e+00   3.701e+00   3.701e+00
H2O(g)             0.73   5.394e+00  0.623   0.000e+00   1.964e-01   1.964e-01

-----------------------------Solution composition------------------------------

	Elements           Molality       Moles

	C                 2.997e-01   2.986e-01
	Na                4.015e+00   4.000e+00
	S                 2.008e+00   2.000e+00

----------------------------Description of solution----------------------------

                                       pH  =   4.977      Charge balance
                                       pe  =   4.000      Adjusted to redox equilibrium
       Specific Conductance (uS/cm, 140 oC) = 131618
                          Density (g/cm3)  =   1.13344
                        Activity of water  =   0.910
                           Ionic strength  =   6.009e+00
                       Mass of water (kg)  =   9.962e-01
                 Total alkalinity (eq/kg)  =   6.835e-12
                       Total CO2 (mol/kg)  =   2.997e-01
                      Temperature (deg C)  = 140.00
                           Pressure (atm)  = 107.05
                  Electrical balance (eq)  =   1.178e-08
 Percent error, 100*(Cat-|An|)/(Cat+|An|)  =   0.00
                               Iterations  =  49
                         Gamma iterations  =   6
                      Osmotic coefficient  =   0.83096
                         Density of water  =   0.92618
                                  Total H  = 1.106197e+02
                                  Total O  = 6.390702e+01

----------------------------Distribution of species----------------------------

                                                    MacInnes  MacInnes
                                MacInnes       Log       Log       Log    mole V
   Species          Molality    Activity  Molality  Activity     Gamma   cm3/mol

   H+              7.127e-05   1.055e-05    -4.147    -4.977    -0.830      0.00
   OH-             2.200e-07   1.711e-07    -6.658    -6.767    -0.109      5.63
   H2O             5.551e+01   9.097e-01     1.744    -0.041     0.000     19.45
C(4)          2.997e-01
   CO2             2.860e-01   6.819e-01    -0.544    -0.166     0.377     19.96
   HCO3-           1.375e-02   1.237e-02    -1.862    -1.908    -0.046     37.94
   CO3-2           6.111e-07   5.995e-08    -6.214    -7.222    -1.008      5.15
Na            4.015e+00
   Na+             4.015e+00   1.337e+00     0.604     0.126    -0.478      2.49
S(6)          2.008e+00
   SO4-2           1.994e+00   1.628e-01     0.300    -0.788    -1.088     24.66
   HSO4-           1.368e-02   6.044e-03    -1.864    -2.219    -0.355     40.42

------------------------------Saturation indices-------------------------------

	Phase               SI   log IAP   log K(413 K, 107 atm)

	Burkeite         -7.38     -8.04   -0.66  Na6CO3(SO4)2
	CO2(g)            1.88     -0.17   -2.05  CO2	 Pressure 101.7 atm, phi 0.828.
	H2O(g)            0.53     -0.04   -0.57  H2O	 Pressure   5.4 atm, phi 0.623.
	Mirabilite        2.08     -0.95   -3.02  Na2SO4:10H2O
	Nahcolite        -1.32    -12.07  -10.75  NaHCO3
	Natron           -6.28     -7.38   -1.10  Na2CO3:10H2O
	Trona            -7.81    -19.13  -11.32  Na3H(CO3)2:2H2O


------------------
End of simulation.
------------------

------------------------------------
Reading input data for simulation 3.
------------------------------------

-----------
End of run.
-----------

