WARNING: Database file from DATABASE keyword is used; command line argument ignored.
   Input file: P_CO2_Na2SO4
  Output file: P_CO2_Na2SO4.out
Database file: ../database/pitzer.dat

------------------
Reading data base.
------------------

	SOLUTION_MASTER_SPECIES
	SOLUTION_SPECIES
	PHASES
	PITZER
	EXCHANGE_MASTER_SPECIES
	EXCHANGE_SPECIES
	SURFACE_MASTER_SPECIES
	SURFACE_SPECIES
	END
------------------------------------
Reading input data for simulation 1.
------------------------------------

	DATABASE ../database/pitzer.dat
	SELECTED_OUTPUT 101
	    file                 P_CO2_Na2SO4_101.sel
	USER_PUNCH 101
	    headings Mu SC
	    start
	10 PUNCH STR_F$(MU, 20, 12)
	20 PUNCH STR_F$(SC, 20, 10)
	    end
	SOLUTION 1
	 pH 7 charge
	 Na 2e3
	 S(6) 1e3
	 temp 140
	GAS_PHASE 1
	     fixed_volume
	     CO2(g) 0
		 H2O(g) 0
	EQUILIBRIUM_PHASES
	REACTION
	 CO2 1
	 4 in 10
	USER_GRAPH
	 -plot_csv_file P_CO2_Na2SO4.dat
	 -axis_titles "CO2 pressure / bar" "Solubility at 140 oC / (mol/kgw)"
	 -connect_simulations false
	 -axis_scale x_axis 0 100
	 10 graph_x pr_p("CO2(g)") * 1.013
	 20 graph_y tot("C")
	END
-------------------------------------------
Beginning of initial solution calculations.
-------------------------------------------

Initial solution 1.	

-----------------------------Solution composition------------------------------

	Elements           Molality       Moles

	Na                2.000e+00   2.000e+00
	S(6)              1.000e+00   1.000e+00

----------------------------Description of solution----------------------------

                                       pH  =   6.927      Charge balance
                                       pe  =   4.000    
      Specific Conductance (µS/cm, 140°C)  = 273483
                          Density (g/cm³)  =   1.03411
                               Volume (L)  =   1.10437
                        Viscosity (mPa s)  =   0.28810
                        Activity of water  =   0.967
                 Ionic strength (mol/kgw)  =   3.000e+00
                       Mass of water (kg)  =   1.000e+00
                 Total alkalinity (eq/kg)  =   3.742e-13
                         Temperature (°C)  = 140.00
                  Electrical balance (eq)  =   2.984e-09
 Percent error, 100*(Cat-|An|)/(Cat+|An|)  =   0.00
                               Iterations  =  11
                         Gamma iterations  =   4
                      Osmotic coefficient  =   0.61151
                         Density of water  =   0.92614
                                  Total H  = 1.110125e+02
                                  Total O  = 5.950625e+01

----------------------------Distribution of species----------------------------

                                                    MacInnes  MacInnes
                                MacInnes       Log       Log       Log    mole V
   Species          Molality    Activity  Molality  Activity     Gamma   cm³/mol

   OH-             2.911e-05   1.546e-05    -4.536    -4.811    -0.275     -1.47
   H+              4.658e-07   1.184e-07    -6.332    -6.927    -0.595      0.00
   H2O             5.551e+01   9.675e-01     1.744    -0.014     0.000     19.45
Na            2.000e+00
   Na+             2.000e+00   7.441e-01     0.301    -0.128    -0.429      1.98
S(6)          1.000e+00
   SO4-2           1.000e+00   2.532e-02    -0.000    -1.597    -1.597     20.66
   HSO4-           2.865e-05   1.108e-05    -4.543    -4.955    -0.412     43.23

------------------------------Saturation indices-------------------------------

  Phase               SI** log IAP   log K(413 K,   1 atm)

  H2O(g)            0.53     -0.01   -0.54  H2O
  Mirabilite       -2.08     -2.00    0.08  Na2SO4:10H2O
  Thenardite       -0.79     -1.85   -1.07  Na2SO4

**For a gas, SI = log10(fugacity). Fugacity = pressure * phi / 1 atm.
  For ideal gases, phi = 1.

-----------------------------------------
Beginning of batch-reaction calculations.
-----------------------------------------

Reaction step 1.

Using solution 1.	
Using pure phase assemblage 1.	
Using gas phase 1.	
Using reaction 1.	

Reaction 1.	

	  4.000e-01 moles of the following reaction have been added:

	                 Relative
	Reactant            moles

	CO2                  1.00000

	                 Relative
	Element             moles
	C                    1.00000
	O                    2.00000

-----------------------------------Gas phase-----------------------------------

Total pressure: 14.68      atmospheres          (Peng-Robinson calculation)
    Gas volume:   1.00e+00 liters
  Molar volume:   2.22e+00 liters/mole
   P * Vm / RT:  0.96270  (Compressibility Factor Z) 

                                                        Moles in gas
                                            ----------------------------------
Component         log P           P    phi     Initial       Final       Delta

CO2(g)             1.04   1.103e+01  0.976   0.000e+00   3.378e-01   3.378e-01
H2O(g)             0.56   3.650e+00  0.928   0.000e+00   1.118e-01   1.118e-01

-----------------------------Solution composition------------------------------

	Elements           Molality       Moles

	C                 6.228e-02   6.215e-02
	Na                2.004e+00   2.000e+00
	S                 1.002e+00   1.000e+00

----------------------------Description of solution----------------------------

                                       pH  =   4.763      Charge balance
                                       pe  =   4.000      Adjusted to redox equilibrium
      Specific Conductance (µS/cm, 140°C)  = 274265
                          Density (g/cm³)  =   1.03433
                               Volume (L)  =   1.10484
                        Viscosity (mPa s)  =   0.28840
                        Activity of water  =   0.966
                 Ionic strength (mol/kgw)  =   3.002e+00
                       Mass of water (kg)  =   9.979e-01
                 Total alkalinity (eq/kg)  =   4.095e-13
                       Total CO2 (mol/kg)  =   6.228e-02
                         Temperature (°C)  = 140.00
                           Pressure (atm)  = 14.68
                  Electrical balance (eq)  =   2.984e-09
 Percent error, 100*(Cat-|An|)/(Cat+|An|)  =   0.00
                               Iterations  =  34
                         Gamma iterations  =   4
                      Osmotic coefficient  =   0.62846
                         Density of water  =   0.92614
                                  Total H  = 1.107888e+02
                                  Total O  = 5.951871e+01

----------------------------Distribution of species----------------------------

                                                    MacInnes  MacInnes
                                MacInnes       Log       Log       Log    mole V
   Species          Molality    Activity  Molality  Activity     Gamma   cm³/mol

   H+              6.757e-05   1.725e-05    -4.170    -4.763    -0.593      0.00
   OH-             2.007e-07   1.068e-07    -6.698    -6.971    -0.274     -1.56
   H2O             5.551e+01   9.659e-01     1.744    -0.015     0.000     19.45
C(4)          6.228e-02
   CO2             5.809e-02   9.123e-02    -1.236    -1.040     0.196     43.18
   HCO3-           4.199e-03   1.084e-03    -2.377    -2.965    -0.588     28.02
   CO3-2           5.999e-08   2.936e-09    -7.222    -8.532    -1.310     -4.44
Na            2.004e+00
   Na+             2.004e+00   7.536e-01     0.302    -0.123    -0.425      2.01
S(6)          1.002e+00
   SO4-2           9.980e-01   2.531e-02    -0.001    -1.597    -1.596     20.61
   HSO4-           4.132e-03   1.600e-03    -2.384    -2.796    -0.412     43.18

------------------------------Saturation indices-------------------------------

  Phase               SI** log IAP   log K(413 K,  15 atm)

  Burkeite        -11.71    -12.46   -0.75  Na6CO3(SO4)2
  CO2(g)            1.03     -1.04   -2.07  CO2	 Pressure  11.0 atm, phi 0.976
  H2O(g)            0.53     -0.02   -0.54  H2O	 Pressure   3.7 atm, phi 0.928
  Mirabilite       -2.07     -1.99    0.08  Na2SO4:10H2O
  Nahcolite        -2.68    -13.42  -10.73  NaHCO3
  Natron           -8.07     -8.93   -0.86  Na2CO3:10H2O
  Thenardite       -0.78     -1.84   -1.06  Na2SO4
  Trona           -10.85    -22.23  -11.37  Na3H(CO3)2:2H2O

**For a gas, SI = log10(fugacity). Fugacity = pressure * phi / 1 atm.
  For ideal gases, phi = 1.

Reaction step 2.

Using solution 1.	
Using pure phase assemblage 1.	
Using gas phase 1.	
Using reaction 1.	

Reaction 1.	

	  8.000e-01 moles of the following reaction have been added:

	                 Relative
	Reactant            moles

	CO2                  1.00000

	                 Relative
	Element             moles
	C                    1.00000
	O                    2.00000

-----------------------------------Gas phase-----------------------------------

Total pressure: 25.66      atmospheres          (Peng-Robinson calculation)
    Gas volume:   1.00e+00 liters
  Molar volume:   1.25e+00 liters/mole
   P * Vm / RT:  0.94311  (Compressibility Factor Z) 

                                                        Moles in gas
                                            ----------------------------------
Component         log P           P    phi     Initial       Final       Delta

CO2(g)             1.34   2.182e+01  0.955   0.000e+00   6.825e-01   6.825e-01
H2O(g)             0.58   3.840e+00  0.886   0.000e+00   1.201e-01   1.201e-01

-----------------------------Solution composition------------------------------

	Elements           Molality       Moles

	C                 1.177e-01   1.175e-01
	Na                2.005e+00   2.000e+00
	S                 1.002e+00   1.000e+00

----------------------------Description of solution----------------------------

                                       pH  =   4.620      Charge balance
                                       pe  =   4.000      Adjusted to redox equilibrium
      Specific Conductance (µS/cm, 140°C)  = 274709
                          Density (g/cm³)  =   1.03434
                               Volume (L)  =   1.10704
                        Viscosity (mPa s)  =   0.28848
                        Activity of water  =   0.964
                 Ionic strength (mol/kgw)  =   3.001e+00
                       Mass of water (kg)  =   9.977e-01
                 Total alkalinity (eq/kg)  =   5.535e-13
                       Total CO2 (mol/kg)  =   1.177e-01
                         Temperature (°C)  = 140.00
                           Pressure (atm)  = 25.66
                  Electrical balance (eq)  =   2.984e-09
 Percent error, 100*(Cat-|An|)/(Cat+|An|)  =   0.00
                               Iterations  =  36
                         Gamma iterations  =   4
                      Osmotic coefficient  =   0.64304
                         Density of water  =   0.92614
                                  Total H  = 1.107723e+02
                                  Total O  = 5.962113e+01

----------------------------Distribution of species----------------------------

                                                    MacInnes  MacInnes
                                MacInnes       Log       Log       Log    mole V
   Species          Molality    Activity  Molality  Activity     Gamma   cm³/mol

   H+              9.364e-05   2.397e-05    -4.029    -4.620    -0.592      0.00
   OH-             1.450e-07   7.730e-08    -6.839    -7.112    -0.273     -1.64
   H2O             5.551e+01   9.644e-01     1.744    -0.016     0.000     19.45
C(4)          1.177e-01
   CO2             1.119e-01   1.743e-01    -0.951    -0.759     0.192     43.12
   HCO3-           5.824e-03   1.506e-03    -2.235    -2.822    -0.588     28.06
   CO3-2           6.049e-08   2.967e-09    -7.218    -8.528    -1.309     -4.35
Na            2.005e+00
   Na+             2.005e+00   7.610e-01     0.302    -0.119    -0.421      2.03
S(6)          1.002e+00
   SO4-2           9.965e-01   2.549e-02    -0.002    -1.594    -1.592     20.56
   HSO4-           5.731e-03   2.222e-03    -2.242    -2.653    -0.411     43.13

------------------------------Saturation indices-------------------------------

  Phase               SI** log IAP   log K(413 K,  26 atm)

  Burkeite        -11.69    -12.43   -0.74  Na6CO3(SO4)2
  CO2(g)            1.32     -0.76   -2.08  CO2	 Pressure  21.8 atm, phi 0.955
  H2O(g)            0.53     -0.02   -0.55  H2O	 Pressure   3.8 atm, phi 0.886
  Mirabilite       -2.07     -1.99    0.08  Na2SO4:10H2O
  Nahcolite        -2.54    -13.27  -10.73  NaHCO3
  Natron           -8.04     -8.92   -0.89  Na2CO3:10H2O
  Thenardite       -0.77     -1.83   -1.06  Na2SO4
  Trona           -10.70    -22.06  -11.36  Na3H(CO3)2:2H2O

**For a gas, SI = log10(fugacity). Fugacity = pressure * phi / 1 atm.
  For ideal gases, phi = 1.

Reaction step 3.

Using solution 1.	
Using pure phase assemblage 1.	
Using gas phase 1.	
Using reaction 1.	

Reaction 1.	

	  1.200e+00 moles of the following reaction have been added:

	                 Relative
	Reactant            moles

	CO2                  1.00000

	                 Relative
	Element             moles
	C                    1.00000
	O                    2.00000

-----------------------------------Gas phase-----------------------------------

Total pressure: 36.35      atmospheres          (Peng-Robinson calculation)
    Gas volume:   1.00e+00 liters
  Molar volume:   8.62e-01 liters/mole
   P * Vm / RT:  0.92386  (Compressibility Factor Z) 

                                                        Moles in gas
                                            ----------------------------------
Component         log P           P    phi     Initial       Final       Delta

CO2(g)             1.51   3.232e+01  0.937   0.000e+00   1.032e+00   1.032e+00
H2O(g)             0.61   4.034e+00  0.848   0.000e+00   1.288e-01   1.288e-01

-----------------------------Solution composition------------------------------

	Elements           Molality       Moles

	C                 1.686e-01   1.681e-01
	Na                2.005e+00   2.000e+00
	S                 1.002e+00   1.000e+00

----------------------------Description of solution----------------------------

                                       pH  =   4.540      Charge balance
                                       pe  =   4.000      Adjusted to redox equilibrium
      Specific Conductance (µS/cm, 140°C)  = 275128
                          Density (g/cm³)  =   1.03435
                               Volume (L)  =   1.10903
                        Viscosity (mPa s)  =   0.28854
                        Activity of water  =   0.963
                 Ionic strength (mol/kgw)  =   3.001e+00
                       Mass of water (kg)  =   9.976e-01
                 Total alkalinity (eq/kg)  =   8.470e-13
                       Total CO2 (mol/kg)  =   1.686e-01
                         Temperature (°C)  = 140.00
                           Pressure (atm)  = 36.35
                  Electrical balance (eq)  =   2.982e-09
 Percent error, 100*(Cat-|An|)/(Cat+|An|)  =   0.00
                               Iterations  =  39
                         Gamma iterations  =   4
                      Osmotic coefficient  =   0.65589
                         Density of water  =   0.92614
                                  Total H  = 1.107549e+02
                                  Total O  = 5.971373e+01

----------------------------Distribution of species----------------------------

                                                    MacInnes  MacInnes
                                MacInnes       Log       Log       Log    mole V
   Species          Molality    Activity  Molality  Activity     Gamma   cm³/mol

   H+              1.123e-04   2.881e-05    -3.949    -4.540    -0.591      0.00
   OH-             1.211e-07   6.465e-08    -6.917    -7.189    -0.272     -1.72
   H2O             5.551e+01   9.632e-01     1.744    -0.016     0.000     19.45
C(4)          1.686e-01
   CO2             1.616e-01   2.497e-01    -0.792    -0.603     0.189     43.05
   HCO3-           6.996e-03   1.811e-03    -2.155    -2.742    -0.587     28.10
   CO3-2           6.099e-08   2.999e-09    -7.215    -8.523    -1.308     -4.27
Na            2.005e+00
   Na+             2.005e+00   7.678e-01     0.302    -0.115    -0.417      2.06
S(6)          1.002e+00
   SO4-2           9.956e-01   2.569e-02    -0.002    -1.590    -1.588     20.51
   HSO4-           6.884e-03   2.673e-03    -2.162    -2.573    -0.411     43.09

------------------------------Saturation indices-------------------------------

  Phase               SI** log IAP   log K(413 K,  36 atm)

  Burkeite        -11.67    -12.39   -0.73  Na6CO3(SO4)2
  CO2(g)            1.48     -0.60   -2.08  CO2	 Pressure  32.3 atm, phi 0.937
  H2O(g)            0.53     -0.02   -0.55  H2O	 Pressure   4.0 atm, phi 0.848
  Mirabilite       -2.06     -1.98    0.08  Na2SO4:10H2O
  Nahcolite        -2.45    -13.18  -10.72  NaHCO3
  Natron           -8.00     -8.92   -0.91  Na2CO3:10H2O
  Thenardite       -0.77     -1.82   -1.05  Na2SO4
  Trona           -10.61    -21.96  -11.35  Na3H(CO3)2:2H2O

**For a gas, SI = log10(fugacity). Fugacity = pressure * phi / 1 atm.
  For ideal gases, phi = 1.

Reaction step 4.

Using solution 1.	
Using pure phase assemblage 1.	
Using gas phase 1.	
Using reaction 1.	

Reaction 1.	

	  1.600e+00 moles of the following reaction have been added:

	                 Relative
	Reactant            moles

	CO2                  1.00000

	                 Relative
	Element             moles
	C                    1.00000
	O                    2.00000

-----------------------------------Gas phase-----------------------------------

Total pressure: 46.76      atmospheres          (Peng-Robinson calculation)
    Gas volume:   1.00e+00 liters
  Molar volume:   6.56e-01 liters/mole
   P * Vm / RT:  0.90538  (Compressibility Factor Z) 

                                                        Moles in gas
                                            ----------------------------------
Component         log P           P    phi     Initial       Final       Delta

CO2(g)             1.63   4.252e+01  0.919   0.000e+00   1.385e+00   1.385e+00
H2O(g)             0.63   4.235e+00  0.811   0.000e+00   1.380e-01   1.380e-01

-----------------------------Solution composition------------------------------

	Elements           Molality       Moles

	C                 2.152e-01   2.147e-01
	Na                2.005e+00   2.000e+00
	S                 1.003e+00   1.000e+00

----------------------------Description of solution----------------------------

                                       pH  =   4.486      Charge balance
                                       pe  =   4.000      Adjusted to redox equilibrium
      Specific Conductance (µS/cm, 140°C)  = 275529
                          Density (g/cm³)  =   1.03437
                               Volume (L)  =   1.11083
                        Viscosity (mPa s)  =   0.28861
                        Activity of water  =   0.962
                 Ionic strength (mol/kgw)  =   3.000e+00
                       Mass of water (kg)  =   9.974e-01
                 Total alkalinity (eq/kg)  =   9.641e-13
                       Total CO2 (mol/kg)  =   2.152e-01
                         Temperature (°C)  = 140.00
                           Pressure (atm)  = 46.76
                  Electrical balance (eq)  =   2.981e-09
 Percent error, 100*(Cat-|An|)/(Cat+|An|)  =   0.00
                               Iterations  =  41
                         Gamma iterations  =   5
                      Osmotic coefficient  =   0.66728
                         Density of water  =   0.92614
                                  Total H  = 1.107365e+02
                                  Total O  = 5.979761e+01

----------------------------Distribution of species----------------------------

                                                    MacInnes  MacInnes
                                MacInnes       Log       Log       Log    mole V
   Species          Molality    Activity  Molality  Activity     Gamma   cm³/mol

   H+              1.271e-04   3.265e-05    -3.896    -4.486    -0.590      0.00
   OH-             1.072e-07   5.735e-08    -6.970    -7.242    -0.272     -1.79
   H2O             5.551e+01   9.620e-01     1.744    -0.017     0.000     19.45
C(4)          2.152e-01
   CO2             2.073e-01   3.182e-01    -0.683    -0.497     0.186     42.99
   HCO3-           7.927e-03   2.055e-03    -2.101    -2.687    -0.586     28.14
   CO3-2           6.147e-08   3.032e-09    -7.211    -8.518    -1.307     -4.18
Na            2.005e+00
   Na+             2.005e+00   7.741e-01     0.302    -0.111    -0.413      2.08
S(6)          1.003e+00
   SO4-2           9.948e-01   2.589e-02    -0.002    -1.587    -1.585     20.47
   HSO4-           7.800e-03   3.032e-03    -2.108    -2.518    -0.410     43.04

------------------------------Saturation indices-------------------------------

  Phase               SI** log IAP   log K(413 K,  47 atm)

  Burkeite        -11.65    -12.36   -0.71  Na6CO3(SO4)2
  CO2(g)            1.59     -0.50   -2.09  CO2	 Pressure  42.5 atm, phi 0.919
  H2O(g)            0.54     -0.02   -0.55  H2O	 Pressure   4.2 atm, phi 0.811
  Mirabilite       -2.06     -1.98    0.08  Na2SO4:10H2O
  Nahcolite        -2.40    -13.12  -10.72  NaHCO3
  Natron           -7.97     -8.91   -0.94  Na2CO3:10H2O
  Thenardite       -0.76     -1.81   -1.05  Na2SO4
  Trona           -10.55    -21.89  -11.34  Na3H(CO3)2:2H2O

**For a gas, SI = log10(fugacity). Fugacity = pressure * phi / 1 atm.
  For ideal gases, phi = 1.

Reaction step 5.

Using solution 1.	
Using pure phase assemblage 1.	
Using gas phase 1.	
Using reaction 1.	

Reaction 1.	

	  2.000e+00 moles of the following reaction have been added:

	                 Relative
	Reactant            moles

	CO2                  1.00000

	                 Relative
	Element             moles
	C                    1.00000
	O                    2.00000

-----------------------------------Gas phase-----------------------------------

Total pressure: 56.89      atmospheres          (Peng-Robinson calculation)
    Gas volume:   1.00e+00 liters
  Molar volume:   5.29e-01 liters/mole
   P * Vm / RT:  0.88776  (Compressibility Factor Z) 

                                                        Moles in gas
                                            ----------------------------------
Component         log P           P    phi     Initial       Final       Delta

CO2(g)             1.72   5.245e+01  0.902   0.000e+00   1.743e+00   1.743e+00
H2O(g)             0.65   4.444e+00  0.777   0.000e+00   1.476e-01   1.476e-01

-----------------------------Solution composition------------------------------

	Elements           Molality       Moles

	C                 2.582e-01   2.575e-01
	Na                2.006e+00   2.000e+00
	S                 1.003e+00   1.000e+00

----------------------------Description of solution----------------------------

                                       pH  =   4.445      Charge balance
                                       pe  =   4.000      Adjusted to redox equilibrium
      Specific Conductance (µS/cm, 140°C)  = 275915
                          Density (g/cm³)  =   1.03439
                               Volume (L)  =   1.11246
                        Viscosity (mPa s)  =   0.28867
                        Activity of water  =   0.961
                 Ionic strength (mol/kgw)  =   3.000e+00
                       Mass of water (kg)  =   9.972e-01
                 Total alkalinity (eq/kg)  =   1.564e-12
                       Total CO2 (mol/kg)  =   2.582e-01
                         Temperature (°C)  = 140.00
                           Pressure (atm)  = 56.89
                  Electrical balance (eq)  =   2.978e-09
 Percent error, 100*(Cat-|An|)/(Cat+|An|)  =   0.00
                               Iterations  =  41
                         Gamma iterations  =   5
                      Osmotic coefficient  =   0.67742
                         Density of water  =   0.92614
                                  Total H  = 1.107172e+02
                                  Total O  = 5.987360e+01

----------------------------Distribution of species----------------------------

                                                    MacInnes  MacInnes
                                MacInnes       Log       Log       Log    mole V
   Species          Molality    Activity  Molality  Activity     Gamma   cm³/mol

   H+              1.394e-04   3.585e-05    -3.856    -4.445    -0.590      0.00
   OH-             9.806e-08   5.251e-08    -7.009    -7.280    -0.271     -1.85
   H2O             5.551e+01   9.609e-01     1.744    -0.017     0.000     19.45
C(4)          2.582e-01
   CO2             2.495e-01   3.805e-01    -0.603    -0.420     0.183     42.93
   HCO3-           8.701e-03   2.258e-03    -2.060    -2.646    -0.586     28.18
   CO3-2           6.192e-08   3.064e-09    -7.208    -8.514    -1.306     -4.10
Na            2.006e+00
   Na+             2.006e+00   7.801e-01     0.302    -0.108    -0.410      2.10
S(6)          1.003e+00
   SO4-2           9.943e-01   2.609e-02    -0.002    -1.584    -1.581     20.43
   HSO4-           8.562e-03   3.332e-03    -2.067    -2.477    -0.410     43.00

------------------------------Saturation indices-------------------------------

  Phase               SI** log IAP   log K(413 K,  57 atm)

  Burkeite        -11.63    -12.33   -0.70  Na6CO3(SO4)2
  CO2(g)            1.68     -0.42   -2.09  CO2	 Pressure  52.4 atm, phi 0.902
  H2O(g)            0.54     -0.02   -0.56  H2O	 Pressure   4.4 atm, phi 0.777
  Mirabilite       -2.05     -1.97    0.08  Na2SO4:10H2O
  Nahcolite        -2.35    -13.07  -10.71  NaHCO3
  Natron           -7.94     -8.90   -0.96  Na2CO3:10H2O
  Thenardite       -0.75     -1.80   -1.05  Na2SO4
  Trona           -10.50    -21.83  -11.33  Na3H(CO3)2:2H2O

**For a gas, SI = log10(fugacity). Fugacity = pressure * phi / 1 atm.
  For ideal gases, phi = 1.

Reaction step 6.

Using solution 1.	
Using pure phase assemblage 1.	
Using gas phase 1.	
Using reaction 1.	

Reaction 1.	

	  2.400e+00 moles of the following reaction have been added:

	                 Relative
	Reactant            moles

	CO2                  1.00000

	                 Relative
	Element             moles
	C                    1.00000
	O                    2.00000

-----------------------------------Gas phase-----------------------------------

Total pressure: 66.76      atmospheres          (Peng-Robinson calculation)
    Gas volume:   1.00e+00 liters
  Molar volume:   4.42e-01 liters/mole
   P * Vm / RT:  0.87105  (Compressibility Factor Z) 

                                                        Moles in gas
                                            ----------------------------------
Component         log P           P    phi     Initial       Final       Delta

CO2(g)             1.79   6.210e+01  0.887   0.000e+00   2.103e+00   2.103e+00
H2O(g)             0.67   4.659e+00  0.744   0.000e+00   1.578e-01   1.578e-01

-----------------------------Solution composition------------------------------

	Elements           Molality       Moles

	C                 2.979e-01   2.970e-01
	Na                2.006e+00   2.000e+00
	S                 1.003e+00   1.000e+00

----------------------------Description of solution----------------------------

                                       pH  =   4.414      Charge balance
                                       pe  =   4.000      Adjusted to redox equilibrium
      Specific Conductance (µS/cm, 140°C)  = 276288
                          Density (g/cm³)  =   1.03441
                               Volume (L)  =   1.11394
                        Viscosity (mPa s)  =   0.28873
                        Activity of water  =   0.960
                 Ionic strength (mol/kgw)  =   3.000e+00
                       Mass of water (kg)  =   9.970e-01
                 Total alkalinity (eq/kg)  =   2.430e-12
                       Total CO2 (mol/kg)  =   2.979e-01
                         Temperature (°C)  = 140.00
                           Pressure (atm)  = 66.76
                  Electrical balance (eq)  =   2.973e-09
 Percent error, 100*(Cat-|An|)/(Cat+|An|)  =   0.00
                               Iterations  =  43
                         Gamma iterations  =   5
                      Osmotic coefficient  =   0.68650
                         Density of water  =   0.92614
                                  Total H  = 1.106970e+02
                                  Total O  = 5.994243e+01

----------------------------Distribution of species----------------------------

                                                    MacInnes  MacInnes
                                MacInnes       Log       Log       Log    mole V
   Species          Molality    Activity  Molality  Activity     Gamma   cm³/mol

   H+              1.498e-04   3.859e-05    -3.825    -4.414    -0.589      0.00
   OH-             9.147e-08   4.905e-08    -7.039    -7.309    -0.271     -1.92
   H2O             5.551e+01   9.599e-01     1.744    -0.018     0.000     19.45
C(4)          2.979e-01
   CO2             2.885e-01   4.374e-01    -0.540    -0.359     0.181     42.88
   HCO3-           9.363e-03   2.433e-03    -2.029    -2.614    -0.585     28.21
   CO3-2           6.236e-08   3.096e-09    -7.205    -8.509    -1.304     -4.02
Na            2.006e+00
   Na+             2.006e+00   7.857e-01     0.302    -0.105    -0.407      2.12
S(6)          1.003e+00
   SO4-2           9.938e-01   2.628e-02    -0.003    -1.580    -1.578     20.39
   HSO4-           9.214e-03   3.589e-03    -2.036    -2.445    -0.409     42.96

------------------------------Saturation indices-------------------------------

  Phase               SI** log IAP   log K(413 K,  67 atm)

  Burkeite        -11.61    -12.30   -0.69  Na6CO3(SO4)2
  CO2(g)            1.74     -0.36   -2.10  CO2	 Pressure  62.1 atm, phi 0.887
  H2O(g)            0.54     -0.02   -0.56  H2O	 Pressure   4.7 atm, phi 0.744
  Mirabilite       -2.05     -1.97    0.08  Na2SO4:10H2O
  Nahcolite        -2.32    -13.03  -10.71  NaHCO3
  Natron           -7.91     -8.90   -0.99  Na2CO3:10H2O
  Thenardite       -0.75     -1.79   -1.04  Na2SO4
  Trona           -10.46    -21.78  -11.33  Na3H(CO3)2:2H2O

**For a gas, SI = log10(fugacity). Fugacity = pressure * phi / 1 atm.
  For ideal gases, phi = 1.

Reaction step 7.

Using solution 1.	
Using pure phase assemblage 1.	
Using gas phase 1.	
Using reaction 1.	

Reaction 1.	

	  2.800e+00 moles of the following reaction have been added:

	                 Relative
	Reactant            moles

	CO2                  1.00000

	                 Relative
	Element             moles
	C                    1.00000
	O                    2.00000

-----------------------------------Gas phase-----------------------------------

Total pressure: 76.40      atmospheres          (Peng-Robinson calculation)
    Gas volume:   1.00e+00 liters
  Molar volume:   3.80e-01 liters/mole
   P * Vm / RT:  0.85524  (Compressibility Factor Z) 

                                                        Moles in gas
                                            ----------------------------------
Component         log P           P    phi     Initial       Final       Delta

CO2(g)             1.85   7.152e+01  0.872   0.000e+00   2.467e+00   2.467e+00
H2O(g)             0.69   4.882e+00  0.714   0.000e+00   1.684e-01   1.684e-01

-----------------------------Solution composition------------------------------

	Elements           Molality       Moles

	C                 3.345e-01   3.335e-01
	Na                2.006e+00   2.000e+00
	S                 1.003e+00   1.000e+00

----------------------------Description of solution----------------------------

                                       pH  =   4.387      Charge balance
                                       pe  =   4.000      Adjusted to redox equilibrium
      Specific Conductance (µS/cm, 140°C)  = 276650
                          Density (g/cm³)  =   1.03444
                               Volume (L)  =   1.11527
                        Viscosity (mPa s)  =   0.28879
                        Activity of water  =   0.959
                 Ionic strength (mol/kgw)  =   3.000e+00
                       Mass of water (kg)  =   9.968e-01
                 Total alkalinity (eq/kg)  =   3.552e-12
                       Total CO2 (mol/kg)  =   3.345e-01
                         Temperature (°C)  = 140.00
                           Pressure (atm)  = 76.40
                  Electrical balance (eq)  =   2.967e-09
 Percent error, 100*(Cat-|An|)/(Cat+|An|)  =   0.00
                               Iterations  =  46
                         Gamma iterations  =   5
                      Osmotic coefficient  =   0.69467
                         Density of water  =   0.92614
                                  Total H  = 1.106757e+02
                                  Total O  = 6.000477e+01

----------------------------Distribution of species----------------------------

                                                    MacInnes  MacInnes
                                MacInnes       Log       Log       Log    mole V
   Species          Molality    Activity  Molality  Activity     Gamma   cm³/mol

   H+              1.588e-04   4.098e-05    -3.799    -4.387    -0.588      0.00
   OH-             8.648e-08   4.643e-08    -7.063    -7.333    -0.270     -1.98
   H2O             5.551e+01   9.590e-01     1.744    -0.018     0.000     19.45
C(4)          3.345e-01
   CO2             3.246e-01   4.894e-01    -0.489    -0.310     0.178     42.82
   HCO3-           9.940e-03   2.585e-03    -2.003    -2.587    -0.585     28.25
   CO3-2           6.277e-08   3.127e-09    -7.202    -8.505    -1.303     -3.95
Na            2.006e+00
   Na+             2.006e+00   7.909e-01     0.302    -0.102    -0.404      2.14
S(6)          1.003e+00
   SO4-2           9.934e-01   2.647e-02    -0.003    -1.577    -1.574     20.35
   HSO4-           9.781e-03   3.814e-03    -2.010    -2.419    -0.409     42.93

------------------------------Saturation indices-------------------------------

  Phase               SI** log IAP   log K(413 K,  76 atm)

  Burkeite        -11.60    -12.27   -0.67  Na6CO3(SO4)2
  CO2(g)            1.80     -0.31   -2.11  CO2	 Pressure  71.5 atm, phi 0.872
  H2O(g)            0.54     -0.02   -0.56  H2O	 Pressure   4.9 atm, phi 0.714
  Mirabilite       -2.04     -1.96    0.08  Na2SO4:10H2O
  Nahcolite        -2.29    -12.99  -10.70  NaHCO3
  Natron           -7.88     -8.89   -1.01  Na2CO3:10H2O
  Thenardite       -0.74     -1.78   -1.04  Na2SO4
  Trona           -10.42    -21.74  -11.32  Na3H(CO3)2:2H2O

**For a gas, SI = log10(fugacity). Fugacity = pressure * phi / 1 atm.
  For ideal gases, phi = 1.

Reaction step 8.

Using solution 1.	
Using pure phase assemblage 1.	
Using gas phase 1.	
Using reaction 1.	

Reaction 1.	

	  3.200e+00 moles of the following reaction have been added:

	                 Relative
	Reactant            moles

	CO2                  1.00000

	                 Relative
	Element             moles
	C                    1.00000
	O                    2.00000

-----------------------------------Gas phase-----------------------------------

Total pressure: 85.82      atmospheres          (Peng-Robinson calculation)
    Gas volume:   1.00e+00 liters
  Molar volume:   3.32e-01 liters/mole
   P * Vm / RT:  0.84035  (Compressibility Factor Z) 

                                                        Moles in gas
                                            ----------------------------------
Component         log P           P    phi     Initial       Final       Delta

CO2(g)             1.91   8.071e+01  0.858   0.000e+00   2.833e+00   2.833e+00
H2O(g)             0.71   5.113e+00  0.684   0.000e+00   1.795e-01   1.795e-01

-----------------------------Solution composition------------------------------

	Elements           Molality       Moles

	C                 3.685e-01   3.672e-01
	Na                2.007e+00   2.000e+00
	S                 1.003e+00   1.000e+00

----------------------------Description of solution----------------------------

                                       pH  =   4.366      Charge balance
                                       pe  =   4.000      Adjusted to redox equilibrium
      Specific Conductance (µS/cm, 140°C)  = 277002
                          Density (g/cm³)  =   1.03447
                               Volume (L)  =   1.11648
                        Viscosity (mPa s)  =   0.28884
                        Activity of water  =   0.958
                 Ionic strength (mol/kgw)  =   3.000e+00
                       Mass of water (kg)  =   9.966e-01
                 Total alkalinity (eq/kg)  =   4.912e-12
                       Total CO2 (mol/kg)  =   3.685e-01
                         Temperature (°C)  = 140.00
                           Pressure (atm)  = 85.82
                  Electrical balance (eq)  =   2.959e-09
 Percent error, 100*(Cat-|An|)/(Cat+|An|)  =   0.00
                               Iterations  =  45
                         Gamma iterations  =   5
                      Osmotic coefficient  =   0.70206
                         Density of water  =   0.92614
                                  Total H  = 1.106536e+02
                                  Total O  = 6.006123e+01

----------------------------Distribution of species----------------------------

                                                    MacInnes  MacInnes
                                MacInnes       Log       Log       Log    mole V
   Species          Molality    Activity  Molality  Activity     Gamma   cm³/mol

   H+              1.668e-04   4.309e-05    -3.778    -4.366    -0.588      0.00
   OH-             8.257e-08   4.439e-08    -7.083    -7.353    -0.270     -2.04
   H2O             5.551e+01   9.582e-01     1.744    -0.019     0.000     19.45
C(4)          3.685e-01
   CO2             3.580e-01   5.371e-01    -0.446    -0.270     0.176     42.77
   HCO3-           1.045e-02   2.721e-03    -1.981    -2.565    -0.584     28.28
   CO3-2           6.317e-08   3.157e-09    -7.200    -8.501    -1.301     -3.87
Na            2.007e+00
   Na+             2.007e+00   7.959e-01     0.303    -0.099    -0.402      2.16
S(6)          1.003e+00
   SO4-2           9.931e-01   2.665e-02    -0.003    -1.574    -1.571     20.31
   HSO4-           1.028e-02   4.013e-03    -1.988    -2.397    -0.409     42.89

------------------------------Saturation indices-------------------------------

  Phase               SI** log IAP   log K(413 K,  86 atm)

  Burkeite        -11.58    -12.24   -0.66  Na6CO3(SO4)2
  CO2(g)            1.84     -0.27   -2.11  CO2	 Pressure  80.7 atm, phi 0.858
  H2O(g)            0.54     -0.02   -0.56  H2O	 Pressure   5.1 atm, phi 0.684
  Mirabilite       -2.03     -1.96    0.08  Na2SO4:10H2O
  Nahcolite        -2.27    -12.97  -10.70  NaHCO3
  Natron           -7.85     -8.88   -1.04  Na2CO3:10H2O
  Thenardite       -0.74     -1.77   -1.04  Na2SO4
  Trona           -10.39    -21.70  -11.31  Na3H(CO3)2:2H2O

**For a gas, SI = log10(fugacity). Fugacity = pressure * phi / 1 atm.
  For ideal gases, phi = 1.

Reaction step 9.

Using solution 1.	
Using pure phase assemblage 1.	
Using gas phase 1.	
Using reaction 1.	

Reaction 1.	

	  3.600e+00 moles of the following reaction have been added:

	                 Relative
	Reactant            moles

	CO2                  1.00000

	                 Relative
	Element             moles
	C                    1.00000
	O                    2.00000

-----------------------------------Gas phase-----------------------------------

Total pressure: 95.04      atmospheres          (Peng-Robinson calculation)
    Gas volume:   1.00e+00 liters
  Molar volume:   2.95e-01 liters/mole
   P * Vm / RT:  0.82637  (Compressibility Factor Z) 

                                                        Moles in gas
                                            ----------------------------------
Component         log P           P    phi     Initial       Final       Delta

CO2(g)             1.95   8.969e+01  0.845   0.000e+00   3.201e+00   3.201e+00
H2O(g)             0.73   5.352e+00  0.657   0.000e+00   1.910e-01   1.910e-01

-----------------------------Solution composition------------------------------

	Elements           Molality       Moles

	C                 4.000e-01   3.986e-01
	Na                2.007e+00   2.000e+00
	S                 1.004e+00   1.000e+00

----------------------------Description of solution----------------------------

                                       pH  =   4.347      Charge balance
                                       pe  =   4.000      Adjusted to redox equilibrium
      Specific Conductance (µS/cm, 140°C)  = 277346
                          Density (g/cm³)  =   1.03451
                               Volume (L)  =   1.11758
                        Viscosity (mPa s)  =   0.28890
                        Activity of water  =   0.957
                 Ionic strength (mol/kgw)  =   3.000e+00
                       Mass of water (kg)  =   9.964e-01
                 Total alkalinity (eq/kg)  =   6.482e-12
                       Total CO2 (mol/kg)  =   4.000e-01
                         Temperature (°C)  = 140.00
                           Pressure (atm)  = 95.04
                  Electrical balance (eq)  =   2.950e-09
 Percent error, 100*(Cat-|An|)/(Cat+|An|)  =   0.00
                               Iterations  =  46
                         Gamma iterations  =   5
                      Osmotic coefficient  =   0.70876
                         Density of water  =   0.92614
                                  Total H  = 1.106304e+02
                                  Total O  = 6.011236e+01

----------------------------Distribution of species----------------------------

                                                    MacInnes  MacInnes
                                MacInnes       Log       Log       Log    mole V
   Species          Molality    Activity  Molality  Activity     Gamma   cm³/mol

   H+              1.740e-04   4.499e-05    -3.760    -4.347    -0.587      0.00
   OH-             7.941e-08   4.274e-08    -7.100    -7.369    -0.269     -2.10
   H2O             5.551e+01   9.574e-01     1.744    -0.019     0.000     19.45
C(4)          4.000e-01
   CO2             3.891e-01   5.810e-01    -0.410    -0.236     0.174     42.72
   HCO3-           1.090e-02   2.842e-03    -1.962    -2.546    -0.584     28.31
   CO3-2           6.355e-08   3.186e-09    -7.197    -8.497    -1.300     -3.80
Na            2.007e+00
   Na+             2.007e+00   8.006e-01     0.303    -0.097    -0.399      2.18
S(6)          1.004e+00
   SO4-2           9.929e-01   2.683e-02    -0.003    -1.571    -1.568     20.28
   HSO4-           1.073e-02   4.192e-03    -1.969    -2.378    -0.408     42.85

------------------------------Saturation indices-------------------------------

  Phase               SI** log IAP   log K(413 K,  95 atm)

  Burkeite        -11.57    -12.22   -0.65  Na6CO3(SO4)2
  CO2(g)            1.88     -0.24   -2.12  CO2	 Pressure  89.7 atm, phi 0.845
  H2O(g)            0.55     -0.02   -0.56  H2O	 Pressure   5.4 atm, phi 0.657
  Mirabilite       -2.03     -1.95    0.08  Na2SO4:10H2O
  Nahcolite        -2.25    -12.94  -10.69  NaHCO3
  Natron           -7.82     -8.88   -1.06  Na2CO3:10H2O
  Thenardite       -0.73     -1.76   -1.03  Na2SO4
  Trona           -10.37    -21.67  -11.30  Na3H(CO3)2:2H2O

**For a gas, SI = log10(fugacity). Fugacity = pressure * phi / 1 atm.
  For ideal gases, phi = 1.

Reaction step 10.

Using solution 1.	
Using pure phase assemblage 1.	
Using gas phase 1.	
Using reaction 1.	

Reaction 1.	

	  4.000e+00 moles of the following reaction have been added:

	                 Relative
	Reactant            moles

	CO2                  1.00000

	                 Relative
	Element             moles
	C                    1.00000
	O                    2.00000

-----------------------------------Gas phase-----------------------------------

Total pressure: 104.10      atmospheres          (Peng-Robinson calculation)
    Gas volume:   1.00e+00 liters
  Molar volume:   2.65e-01 liters/mole
   P * Vm / RT:  0.81329  (Compressibility Factor Z) 

                                                        Moles in gas
                                            ----------------------------------
Component         log P           P    phi     Initial       Final       Delta

CO2(g)             1.99   9.850e+01  0.832   0.000e+00   3.572e+00   3.572e+00
H2O(g)             0.75   5.599e+00  0.631   0.000e+00   2.031e-01   2.031e-01

-----------------------------Solution composition------------------------------

	Elements           Molality       Moles

	C                 4.294e-01   4.277e-01
	Na                2.008e+00   2.000e+00
	S                 1.004e+00   1.000e+00

----------------------------Description of solution----------------------------

                                       pH  =   4.331      Charge balance
                                       pe  =   4.000      Adjusted to redox equilibrium
      Specific Conductance (µS/cm, 140°C)  = 277683
                          Density (g/cm³)  =   1.03455
                               Volume (L)  =   1.11857
                        Viscosity (mPa s)  =   0.28896
                        Activity of water  =   0.957
                 Ionic strength (mol/kgw)  =   3.001e+00
                       Mass of water (kg)  =   9.961e-01
                 Total alkalinity (eq/kg)  =   8.231e-12
                       Total CO2 (mol/kg)  =   4.294e-01
                         Temperature (°C)  = 140.00
                           Pressure (atm)  = 104.10
                  Electrical balance (eq)  =   2.940e-09
 Percent error, 100*(Cat-|An|)/(Cat+|An|)  =   0.00
                               Iterations  =  45
                         Gamma iterations  =   5
                      Osmotic coefficient  =   0.71488
                         Density of water  =   0.92614
                                  Total H  = 1.106064e+02
                                  Total O  = 6.015867e+01

----------------------------Distribution of species----------------------------

                                                    MacInnes  MacInnes
                                MacInnes       Log       Log       Log    mole V
   Species          Molality    Activity  Molality  Activity     Gamma   cm³/mol

   H+              1.804e-04   4.670e-05    -3.744    -4.331    -0.587      0.00
   OH-             7.679e-08   4.138e-08    -7.115    -7.383    -0.269     -2.16
   H2O             5.551e+01   9.566e-01     1.744    -0.019     0.000     19.45
C(4)          4.294e-01
   CO2             4.181e-01   6.215e-01    -0.379    -0.207     0.172     42.67
   HCO3-           1.131e-02   2.952e-03    -1.946    -2.530    -0.584     28.35
   CO3-2           6.391e-08   3.214e-09    -7.194    -8.493    -1.298     -3.73
Na            2.008e+00
   Na+             2.008e+00   8.050e-01     0.303    -0.094    -0.397      2.20
S(6)          1.004e+00
   SO4-2           9.927e-01   2.700e-02    -0.003    -1.569    -1.565     20.24
   HSO4-           1.113e-02   4.354e-03    -1.953    -2.361    -0.408     42.82

------------------------------Saturation indices-------------------------------

  Phase               SI** log IAP   log K(413 K, 104 atm)

  Burkeite        -11.56    -12.20   -0.64  Na6CO3(SO4)2
  CO2(g)            1.91     -0.21   -2.12  CO2	 Pressure  98.5 atm, phi 0.832
  H2O(g)            0.55     -0.02   -0.57  H2O	 Pressure   5.6 atm, phi 0.631
  Mirabilite       -2.03     -1.95    0.08  Na2SO4:10H2O
  Nahcolite        -2.23    -12.92  -10.69  NaHCO3
  Natron           -7.79     -8.87   -1.08  Na2CO3:10H2O
  Thenardite       -0.73     -1.76   -1.03  Na2SO4
  Trona           -10.34    -21.64  -11.29  Na3H(CO3)2:2H2O

**For a gas, SI = log10(fugacity). Fugacity = pressure * phi / 1 atm.
  For ideal gases, phi = 1.

------------------
End of simulation.
------------------

------------------------------------
Reading input data for simulation 2.
------------------------------------

	SOLUTION 1
	 pH 7 charge
	 Na 4e3
	 S(6) 2e3
	 temp 140
	USE reaction 1
	 USE gas_phase 1
	 USE equilibrium_phases 1
	END
-------------------------------------------
Beginning of initial solution calculations.
-------------------------------------------

Initial solution 1.	

-----------------------------Solution composition------------------------------

	Elements           Molality       Moles

	Na                4.000e+00   4.000e+00
	S(6)              2.000e+00   2.000e+00

----------------------------Description of solution----------------------------

                                       pH  =   6.985      Charge balance
                                       pe  =   4.000    
      Specific Conductance (µS/cm, 140°C)  = 306016
                          Density (g/cm³)  =   1.11824
                               Volume (L)  =   1.14832
                        Viscosity (mPa s)  =   0.42722
                        Activity of water  =   0.938
                 Ionic strength (mol/kgw)  =   6.000e+00
                       Mass of water (kg)  =   1.000e+00
                 Total alkalinity (eq/kg)  =   2.780e-14
                         Temperature (°C)  = 140.00
                  Electrical balance (eq)  =   3.541e-09
 Percent error, 100*(Cat-|An|)/(Cat+|An|)  =   0.00
                               Iterations  =  13
                         Gamma iterations  =   5
                      Osmotic coefficient  =   0.58975
                         Density of water  =   0.92614
                                  Total H  = 1.110125e+02
                                  Total O  = 6.350625e+01

----------------------------Distribution of species----------------------------

                                                    MacInnes  MacInnes
                                MacInnes       Log       Log       Log    mole V
   Species          Molality    Activity  Molality  Activity     Gamma   cm³/mol

   OH-             3.192e-05   1.716e-05    -4.496    -4.766    -0.270      4.15
   H+              3.793e-07   1.034e-07    -6.421    -6.985    -0.564      0.00
   H2O             5.551e+01   9.382e-01     1.744    -0.028     0.000     19.45
Na            4.000e+00
   Na+             4.000e+00   1.346e+00     0.602     0.129    -0.473      2.10
S(6)          2.000e+00
   SO4-2           2.000e+00   2.525e-02     0.301    -1.598    -1.899     30.08
   HSO4-           3.155e-05   9.659e-06    -4.501    -5.015    -0.514     44.93

------------------------------Saturation indices-------------------------------

  Phase               SI** log IAP   log K(413 K,   1 atm)

  H2O(g)            0.51     -0.03   -0.54  H2O
  Mirabilite       -1.70     -1.62    0.08  Na2SO4:10H2O
  Thenardite       -0.27     -1.34   -1.07  Na2SO4

**For a gas, SI = log10(fugacity). Fugacity = pressure * phi / 1 atm.
  For ideal gases, phi = 1.

-----------------------------------------
Beginning of batch-reaction calculations.
-----------------------------------------

Reaction step 1.

Using solution 1.	
Using pure phase assemblage 1.	
Using gas phase 1.	
Using reaction 1.	

Reaction 1.	

	  4.000e-01 moles of the following reaction have been added:

	                 Relative
	Reactant            moles

	CO2                  1.00000

	                 Relative
	Element             moles
	C                    1.00000
	O                    2.00000

-----------------------------------Gas phase-----------------------------------

Total pressure: 15.08      atmospheres          (Peng-Robinson calculation)
    Gas volume:   1.00e+00 liters
  Molar volume:   2.16e+00 liters/mole
   P * Vm / RT:  0.96239  (Compressibility Factor Z) 

                                                        Moles in gas
                                            ----------------------------------
Component         log P           P    phi     Initial       Final       Delta

CO2(g)             1.06   1.154e+01  0.975   0.000e+00   3.536e-01   3.536e-01
H2O(g)             0.55   3.545e+00  0.927   0.000e+00   1.087e-01   1.087e-01

-----------------------------Solution composition------------------------------

	Elements           Molality       Moles

	C                 4.651e-02   4.642e-02
	Na                4.008e+00   4.000e+00
	S                 2.004e+00   2.000e+00

----------------------------Description of solution----------------------------

                                       pH  =   4.708      Charge balance
                                       pe  =   4.000      Adjusted to redox equilibrium
      Specific Conductance (µS/cm, 140°C)  = 307073
                          Density (g/cm³)  =   1.11865
                               Volume (L)  =   1.14797
                        Viscosity (mPa s)  =   0.42791
                        Activity of water  =   0.937
                 Ionic strength (mol/kgw)  =   6.007e+00
                       Mass of water (kg)  =   9.979e-01
                 Total alkalinity (eq/kg)  =   2.435e-13
                       Total CO2 (mol/kg)  =   4.651e-02
                         Temperature (°C)  = 140.00
                           Pressure (atm)  = 15.08
                  Electrical balance (eq)  =   3.541e-09
 Percent error, 100*(Cat-|An|)/(Cat+|An|)  =   0.00
                               Iterations  =  34
                         Gamma iterations  =   4
                      Osmotic coefficient  =   0.59871
                         Density of water  =   0.92614
                                  Total H  = 1.107952e+02
                                  Total O  = 6.349042e+01

----------------------------Distribution of species----------------------------

                                                    MacInnes  MacInnes
                                MacInnes       Log       Log       Log    mole V
   Species          Molality    Activity  Molality  Activity     Gamma   cm³/mol

   H+              7.141e-05   1.960e-05    -4.146    -4.708    -0.562      0.00
   OH-             1.690e-07   9.098e-08    -6.772    -7.041    -0.269      4.04
   H2O             5.551e+01   9.367e-01     1.744    -0.028     0.000     19.45
C(4)          4.651e-02
   CO2             4.054e-02   9.531e-02    -1.392    -1.021     0.371     43.18
   HCO3-           5.969e-03   9.657e-04    -2.224    -3.015    -0.791     31.28
   CO3-2           4.708e-08   2.304e-09    -7.327    -8.637    -1.310     -1.58
Na            4.008e+00
   Na+             4.008e+00   1.359e+00     0.603     0.133    -0.470      2.13
S(6)          2.004e+00
   SO4-2           1.998e+00   2.510e-02     0.301    -1.600    -1.901     29.95
   HSO4-           5.898e-03   1.808e-03    -2.229    -2.743    -0.514     44.85

------------------------------Saturation indices-------------------------------

  Phase               SI** log IAP   log K(413 K,  15 atm)

  Burkeite        -10.28    -11.04   -0.76  Na6CO3(SO4)2
  CO2(g)            1.05     -1.02   -2.07  CO2	 Pressure  11.5 atm, phi 0.975
  H2O(g)            0.52     -0.03   -0.54  H2O	 Pressure   3.5 atm, phi 0.927
  Mirabilite       -1.70     -1.62    0.08  Na2SO4:10H2O
  Nahcolite        -2.48    -13.21  -10.74  NaHCO3
  Natron           -7.79     -8.65   -0.86  Na2CO3:10H2O
  Thenardite       -0.27     -1.33   -1.06  Na2SO4
  Trona           -10.27    -21.64  -11.37  Na3H(CO3)2:2H2O

**For a gas, SI = log10(fugacity). Fugacity = pressure * phi / 1 atm.
  For ideal gases, phi = 1.

Reaction step 2.

Using solution 1.	
Using pure phase assemblage 1.	
Using gas phase 1.	
Using reaction 1.	

Reaction 1.	

	  8.000e-01 moles of the following reaction have been added:

	                 Relative
	Reactant            moles

	CO2                  1.00000

	                 Relative
	Element             moles
	C                    1.00000
	O                    2.00000

-----------------------------------Gas phase-----------------------------------

Total pressure: 26.54      atmospheres          (Peng-Robinson calculation)
    Gas volume:   1.00e+00 liters
  Molar volume:   1.20e+00 liters/mole
   P * Vm / RT:  0.94187  (Compressibility Factor Z) 

                                                        Moles in gas
                                            ----------------------------------
Component         log P           P    phi     Initial       Final       Delta

CO2(g)             1.36   2.281e+01  0.954   0.000e+00   7.142e-01   7.142e-01
H2O(g)             0.57   3.738e+00  0.884   0.000e+00   1.171e-01   1.171e-01

-----------------------------Solution composition------------------------------

	Elements           Molality       Moles

	C                 8.599e-02   8.579e-02
	Na                4.009e+00   4.000e+00
	S                 2.005e+00   2.000e+00

----------------------------Description of solution----------------------------

                                       pH  =   4.565      Charge balance
                                       pe  =   4.000      Adjusted to redox equilibrium
      Specific Conductance (µS/cm, 140°C)  = 307820
                          Density (g/cm³)  =   1.11872
                               Volume (L)  =   1.14931
                        Viscosity (mPa s)  =   0.42807
                        Activity of water  =   0.936
                 Ionic strength (mol/kgw)  =   6.006e+00
                       Mass of water (kg)  =   9.977e-01
                 Total alkalinity (eq/kg)  =   1.361e-12
                       Total CO2 (mol/kg)  =   8.599e-02
                         Temperature (°C)  = 140.00
                           Pressure (atm)  = 26.54
                  Electrical balance (eq)  =   3.538e-09
 Percent error, 100*(Cat-|An|)/(Cat+|An|)  =   0.00
                               Iterations  =  36
                         Gamma iterations  =   4
                      Osmotic coefficient  =   0.60659
                         Density of water  =   0.92614
                                  Total H  = 1.107784e+02
                                  Total O  = 6.356078e+01

----------------------------Distribution of species----------------------------

                                                    MacInnes  MacInnes
                                MacInnes       Log       Log       Log    mole V
   Species          Molality    Activity  Molality  Activity     Gamma   cm³/mol

   H+              9.884e-05   2.721e-05    -4.005    -4.565    -0.560      0.00
   OH-             1.220e-07   6.581e-08    -6.914    -7.182    -0.268      3.94
   H2O             5.551e+01   9.355e-01     1.744    -0.029     0.000     19.45
C(4)          8.599e-02
   CO2             7.773e-02   1.817e-01    -1.109    -0.741     0.369     43.11
   HCO3-           8.261e-03   1.338e-03    -2.083    -2.873    -0.790     31.31
   CO3-2           4.747e-08   2.326e-09    -7.324    -8.633    -1.310     -1.56
Na            4.009e+00
   Na+             4.009e+00   1.369e+00     0.603     0.136    -0.467      2.16
S(6)          2.005e+00
   SO4-2           1.996e+00   2.518e-02     0.300    -1.599    -1.899     29.82
   HSO4-           8.162e-03   2.505e-03    -2.088    -2.601    -0.513     44.79

------------------------------Saturation indices-------------------------------

  Phase               SI** log IAP   log K(413 K,  27 atm)

  Burkeite        -10.27    -11.01   -0.75  Na6CO3(SO4)2
  CO2(g)            1.34     -0.74   -2.08  CO2	 Pressure  22.8 atm, phi 0.954
  H2O(g)            0.52     -0.03   -0.55  H2O	 Pressure   3.7 atm, phi 0.884
  Mirabilite       -1.69     -1.62    0.08  Na2SO4:10H2O
  Nahcolite        -2.33    -13.06  -10.73  NaHCO3
  Natron           -7.76     -8.65   -0.89  Na2CO3:10H2O
  Thenardite       -0.27     -1.33   -1.06  Na2SO4
  Trona           -10.12    -21.48  -11.36  Na3H(CO3)2:2H2O

**For a gas, SI = log10(fugacity). Fugacity = pressure * phi / 1 atm.
  For ideal gases, phi = 1.

Reaction step 3.

Using solution 1.	
Using pure phase assemblage 1.	
Using gas phase 1.	
Using reaction 1.	

Reaction 1.	

	  1.200e+00 moles of the following reaction have been added:

	                 Relative
	Reactant            moles

	CO2                  1.00000

	                 Relative
	Element             moles
	C                    1.00000
	O                    2.00000

-----------------------------------Gas phase-----------------------------------

Total pressure: 37.65      atmospheres          (Peng-Robinson calculation)
    Gas volume:   1.00e+00 liters
  Molar volume:   8.30e-01 liters/mole
   P * Vm / RT:  0.92189  (Compressibility Factor Z) 

                                                        Moles in gas
                                            ----------------------------------
Component         log P           P    phi     Initial       Final       Delta

CO2(g)             1.53   3.372e+01  0.934   0.000e+00   1.079e+00   1.079e+00
H2O(g)             0.59   3.935e+00  0.844   0.000e+00   1.259e-01   1.259e-01

-----------------------------Solution composition------------------------------

	Elements           Molality       Moles

	C                 1.215e-01   1.212e-01
	Na                4.010e+00   4.000e+00
	S                 2.005e+00   2.000e+00

----------------------------Description of solution----------------------------

                                       pH  =   4.486      Charge balance
                                       pe  =   4.000      Adjusted to redox equilibrium
      Specific Conductance (µS/cm, 140°C)  = 308513
                          Density (g/cm³)  =   1.11878
                               Volume (L)  =   1.15049
                        Viscosity (mPa s)  =   0.42825
                        Activity of water  =   0.934
                 Ionic strength (mol/kgw)  =   6.005e+00
                       Mass of water (kg)  =   9.976e-01
                 Total alkalinity (eq/kg)  =   5.724e-11
                       Total CO2 (mol/kg)  =   1.215e-01
                         Temperature (°C)  = 140.00
                           Pressure (atm)  = 37.65
                  Electrical balance (eq)  =   3.235e-09
 Percent error, 100*(Cat-|An|)/(Cat+|An|)  =   0.00
                               Iterations  =  42
                         Gamma iterations  =   5
                      Osmotic coefficient  =   0.61368
                         Density of water  =   0.92614
                                  Total H  = 1.107607e+02
                                  Total O  = 6.362272e+01

----------------------------Distribution of species----------------------------

                                                    MacInnes  MacInnes
                                MacInnes       Log       Log       Log    mole V
   Species          Molality    Activity  Molality  Activity     Gamma   cm³/mol

   H+              1.184e-04   3.267e-05    -3.927    -4.486    -0.559      0.00
   OH-             1.019e-07   5.503e-08    -6.992    -7.259    -0.267      3.85
   H2O             5.551e+01   9.344e-01     1.744    -0.029     0.000     19.45
C(4)          1.215e-01
   CO2             1.116e-01   2.595e-01    -0.952    -0.586     0.366     43.05
   HCO3-           9.902e-03   1.606e-03    -2.004    -2.794    -0.790     31.33
   CO3-2           4.785e-08   2.350e-09    -7.320    -8.629    -1.309     -1.53
Na            4.010e+00
   Na+             4.010e+00   1.378e+00     0.603     0.139    -0.464      2.18
S(6)          2.005e+00
   SO4-2           1.995e+00   2.530e-02     0.300    -1.597    -1.897     29.71
   HSO4-           9.784e-03   3.007e-03    -2.010    -2.522    -0.512     44.72

------------------------------Saturation indices-------------------------------

  Phase               SI** log IAP   log K(413 K,  38 atm)

  Burkeite        -10.25    -10.99   -0.73  Na6CO3(SO4)2
  CO2(g)            1.50     -0.59   -2.08  CO2	 Pressure  33.7 atm, phi 0.934
  H2O(g)            0.52     -0.03   -0.55  H2O	 Pressure   3.9 atm, phi 0.844
  Mirabilite       -1.69     -1.61    0.07  Na2SO4:10H2O
  Nahcolite        -2.25    -12.98  -10.72  NaHCO3
  Natron           -7.73     -8.65   -0.92  Na2CO3:10H2O
  Thenardite       -0.26     -1.32   -1.06  Na2SO4
  Trona           -10.03    -21.39  -11.35  Na3H(CO3)2:2H2O

**For a gas, SI = log10(fugacity). Fugacity = pressure * phi / 1 atm.
  For ideal gases, phi = 1.

Reaction step 4.

Using solution 1.	
Using pure phase assemblage 1.	
Using gas phase 1.	
Using reaction 1.	

Reaction 1.	

	  1.600e+00 moles of the following reaction have been added:

	                 Relative
	Reactant            moles

	CO2                  1.00000

	                 Relative
	Element             moles
	C                    1.00000
	O                    2.00000

-----------------------------------Gas phase-----------------------------------

Total pressure: 48.42      atmospheres          (Peng-Robinson calculation)
    Gas volume:   1.00e+00 liters
  Molar volume:   6.32e-01 liters/mole
   P * Vm / RT:  0.90283  (Compressibility Factor Z) 

                                                        Moles in gas
                                            ----------------------------------
Component         log P           P    phi     Initial       Final       Delta

CO2(g)             1.65   4.428e+01  0.916   0.000e+00   1.447e+00   1.447e+00
H2O(g)             0.62   4.139e+00  0.806   0.000e+00   1.352e-01   1.352e-01

-----------------------------Solution composition------------------------------

	Elements           Molality       Moles

	C                 1.536e-01   1.532e-01
	Na                4.011e+00   4.000e+00
	S                 2.005e+00   2.000e+00

----------------------------Description of solution----------------------------

                                       pH  =   4.432      Charge balance
                                       pe  =   4.000      Adjusted to redox equilibrium
      Specific Conductance (µS/cm, 140°C)  = 309168
                          Density (g/cm³)  =   1.11885
                               Volume (L)  =   1.15153
                        Viscosity (mPa s)  =   0.42844
                        Activity of water  =   0.933
                 Ionic strength (mol/kgw)  =   6.005e+00
                       Mass of water (kg)  =   9.974e-01
                 Total alkalinity (eq/kg)  =   2.228e-12
                       Total CO2 (mol/kg)  =   1.536e-01
                         Temperature (°C)  = 140.00
                           Pressure (atm)  = 48.42
                  Electrical balance (eq)  =   3.536e-09
 Percent error, 100*(Cat-|An|)/(Cat+|An|)  =   0.00
                               Iterations  =  43
                         Gamma iterations  =   5
                      Osmotic coefficient  =   0.62007
                         Density of water  =   0.92614
                                  Total H  = 1.107420e+02
                                  Total O  = 6.367749e+01

----------------------------Distribution of species----------------------------

                                                    MacInnes  MacInnes
                                MacInnes       Log       Log       Log    mole V
   Species          Molality    Activity  Molality  Activity     Gamma   cm³/mol

   H+              1.338e-04   3.698e-05    -3.874    -4.432    -0.558      0.00
   OH-             9.020e-08   4.880e-08    -7.045    -7.312    -0.267      3.76
   H2O             5.551e+01   9.334e-01     1.744    -0.030     0.000     19.45
C(4)          1.536e-01
   CO2             1.424e-01   3.297e-01    -0.846    -0.482     0.364     42.98
   HCO3-           1.120e-02   1.819e-03    -1.951    -2.740    -0.789     31.35
   CO3-2           4.822e-08   2.375e-09    -7.317    -8.624    -1.308     -1.51
Na            4.011e+00
   Na+             4.011e+00   1.386e+00     0.603     0.142    -0.462      2.20
S(6)          2.005e+00
   SO4-2           1.994e+00   2.542e-02     0.300    -1.595    -1.895     29.60
   HSO4-           1.106e-02   3.404e-03    -1.956    -2.468    -0.512     44.66

------------------------------Saturation indices-------------------------------

  Phase               SI** log IAP   log K(413 K,  48 atm)

  Burkeite        -10.24    -10.96   -0.72  Na6CO3(SO4)2
  CO2(g)            1.61     -0.48   -2.09  CO2	 Pressure  44.3 atm, phi 0.916
  H2O(g)            0.52     -0.03   -0.55  H2O	 Pressure   4.1 atm, phi 0.806
  Mirabilite       -1.68     -1.61    0.07  Na2SO4:10H2O
  Nahcolite        -2.20    -12.91  -10.72  NaHCO3
  Natron           -7.70     -8.64   -0.94  Na2CO3:10H2O
  Thenardite       -0.26     -1.31   -1.06  Na2SO4
  Trona            -9.97    -21.32  -11.35  Na3H(CO3)2:2H2O

**For a gas, SI = log10(fugacity). Fugacity = pressure * phi / 1 atm.
  For ideal gases, phi = 1.

Reaction step 5.

Using solution 1.	
Using pure phase assemblage 1.	
Using gas phase 1.	
Using reaction 1.	

Reaction 1.	

	  2.000e+00 moles of the following reaction have been added:

	                 Relative
	Reactant            moles

	CO2                  1.00000

	                 Relative
	Element             moles
	C                    1.00000
	O                    2.00000

-----------------------------------Gas phase-----------------------------------

Total pressure: 58.87      atmospheres          (Peng-Robinson calculation)
    Gas volume:   1.00e+00 liters
  Molar volume:   5.10e-01 liters/mole
   P * Vm / RT:  0.88476  (Compressibility Factor Z) 

                                                        Moles in gas
                                            ----------------------------------
Component         log P           P    phi     Initial       Final       Delta

CO2(g)             1.74   5.452e+01  0.899   0.000e+00   1.818e+00   1.818e+00
H2O(g)             0.64   4.350e+00  0.771   0.000e+00   1.450e-01   1.450e-01

-----------------------------Solution composition------------------------------

	Elements           Molality       Moles

	C                 1.829e-01   1.824e-01
	Na                4.011e+00   4.000e+00
	S                 2.006e+00   2.000e+00

----------------------------Description of solution----------------------------

                                       pH  =   4.392      Charge balance
                                       pe  =   4.000      Adjusted to redox equilibrium
      Specific Conductance (µS/cm, 140°C)  = 309792
                          Density (g/cm³)  =   1.11893
                               Volume (L)  =   1.15244
                        Viscosity (mPa s)  =   0.42863
                        Activity of water  =   0.932
                 Ionic strength (mol/kgw)  =   6.005e+00
                       Mass of water (kg)  =   9.972e-01
                 Total alkalinity (eq/kg)  =   4.259e-12
                       Total CO2 (mol/kg)  =   1.829e-01
                         Temperature (°C)  = 140.00
                           Pressure (atm)  = 58.87
                  Electrical balance (eq)  =   3.530e-09
 Percent error, 100*(Cat-|An|)/(Cat+|An|)  =   0.00
                               Iterations  =  42
                         Gamma iterations  =   5
                      Osmotic coefficient  =   0.62587
                         Density of water  =   0.92614
                                  Total H  = 1.107224e+02
                                  Total O  = 6.372595e+01

----------------------------Distribution of species----------------------------

                                                    MacInnes  MacInnes
                                MacInnes       Log       Log       Log    mole V
   Species          Molality    Activity  Molality  Activity     Gamma   cm³/mol

   H+              1.464e-04   4.055e-05    -3.835    -4.392    -0.557      0.00
   OH-             8.247e-08   4.468e-08    -7.084    -7.350    -0.266      3.68
   H2O             5.551e+01   9.325e-01     1.744    -0.030     0.000     19.45
C(4)          1.829e-01
   CO2             1.706e-01   3.932e-01    -0.768    -0.405     0.363     42.92
   HCO3-           1.227e-02   1.995e-03    -1.911    -2.700    -0.789     31.38
   CO3-2           4.858e-08   2.400e-09    -7.314    -8.620    -1.306     -1.49
Na            4.011e+00
   Na+             4.011e+00   1.393e+00     0.603     0.144    -0.459      2.22
S(6)          2.006e+00
   SO4-2           1.994e+00   2.555e-02     0.300    -1.593    -1.892     29.49
   HSO4-           1.212e-02   3.734e-03    -1.916    -2.428    -0.511     44.61

------------------------------Saturation indices-------------------------------

  Phase               SI** log IAP   log K(413 K,  59 atm)

  Burkeite        -10.23    -10.94   -0.71  Na6CO3(SO4)2
  CO2(g)            1.69     -0.41   -2.10  CO2	 Pressure  54.5 atm, phi 0.899
  H2O(g)            0.53     -0.03   -0.56  H2O	 Pressure   4.4 atm, phi 0.771
  Mirabilite       -1.68     -1.61    0.07  Na2SO4:10H2O
  Nahcolite        -2.15    -12.87  -10.71  NaHCO3
  Natron           -7.66     -8.64   -0.97  Na2CO3:10H2O
  Thenardite       -0.25     -1.30   -1.05  Na2SO4
  Trona            -9.92    -21.26  -11.34  Na3H(CO3)2:2H2O

**For a gas, SI = log10(fugacity). Fugacity = pressure * phi / 1 atm.
  For ideal gases, phi = 1.

Reaction step 6.

Using solution 1.	
Using pure phase assemblage 1.	
Using gas phase 1.	
Using reaction 1.	

Reaction 1.	

	  2.400e+00 moles of the following reaction have been added:

	                 Relative
	Reactant            moles

	CO2                  1.00000

	                 Relative
	Element             moles
	C                    1.00000
	O                    2.00000

-----------------------------------Gas phase-----------------------------------

Total pressure: 69.02      atmospheres          (Peng-Robinson calculation)
    Gas volume:   1.00e+00 liters
  Molar volume:   4.26e-01 liters/mole
   P * Vm / RT:  0.86770  (Compressibility Factor Z) 

                                                        Moles in gas
                                            ----------------------------------
Component         log P           P    phi     Initial       Final       Delta

CO2(g)             1.81   6.446e+01  0.883   0.000e+00   2.191e+00   2.191e+00
H2O(g)             0.66   4.568e+00  0.738   0.000e+00   1.553e-01   1.553e-01

-----------------------------Solution composition------------------------------

	Elements           Molality       Moles

	C                 2.096e-01   2.089e-01
	Na                4.012e+00   4.000e+00
	S                 2.006e+00   2.000e+00

----------------------------Description of solution----------------------------

                                       pH  =   4.361      Charge balance
                                       pe  =   4.000      Adjusted to redox equilibrium
      Specific Conductance (µS/cm, 140°C)  = 310390
                          Density (g/cm³)  =   1.11901
                               Volume (L)  =   1.15324
                        Viscosity (mPa s)  =   0.42883
                        Activity of water  =   0.932
                 Ionic strength (mol/kgw)  =   6.005e+00
                       Mass of water (kg)  =   9.970e-01
                 Total alkalinity (eq/kg)  =   7.137e-12
                       Total CO2 (mol/kg)  =   2.096e-01
                         Temperature (°C)  = 140.00
                           Pressure (atm)  = 69.02
                  Electrical balance (eq)  =   3.522e-09
 Percent error, 100*(Cat-|An|)/(Cat+|An|)  =   0.00
                               Iterations  =  44
                         Gamma iterations  =   5
                      Osmotic coefficient  =   0.63114
                         Density of water  =   0.92614
                                  Total H  = 1.107019e+02
                                  Total O  = 6.376882e+01

----------------------------Distribution of species----------------------------

                                                    MacInnes  MacInnes
                                MacInnes       Log       Log       Log    mole V
   Species          Molality    Activity  Molality  Activity     Gamma   cm³/mol

   H+              1.571e-04   4.359e-05    -3.804    -4.361    -0.557      0.00
   OH-             7.692e-08   4.173e-08    -7.114    -7.380    -0.266      3.59
   H2O             5.551e+01   9.316e-01     1.744    -0.031     0.000     19.45
C(4)          2.096e-01
   CO2             1.964e-01   4.509e-01    -0.707    -0.346     0.361     42.86
   HCO3-           1.318e-02   2.145e-03    -1.880    -2.669    -0.788     31.40
   CO3-2           4.892e-08   2.425e-09    -7.311    -8.615    -1.305     -1.47
Na            4.012e+00
   Na+             4.012e+00   1.400e+00     0.603     0.146    -0.457      2.24
S(6)          2.006e+00
   SO4-2           1.993e+00   2.568e-02     0.300    -1.590    -1.890     29.39
   HSO4-           1.302e-02   4.016e-03    -1.885    -2.396    -0.511     44.55

------------------------------Saturation indices-------------------------------

  Phase               SI** log IAP   log K(413 K,  69 atm)

  Burkeite        -10.22    -10.92   -0.70  Na6CO3(SO4)2
  CO2(g)            1.76     -0.35   -2.10  CO2	 Pressure  64.5 atm, phi 0.883
  H2O(g)            0.53     -0.03   -0.56  H2O	 Pressure   4.6 atm, phi 0.738
  Mirabilite       -1.67     -1.61    0.07  Na2SO4:10H2O
  Nahcolite        -2.12    -12.83  -10.71  NaHCO3
  Natron           -7.63     -8.63   -1.00  Na2CO3:10H2O
  Thenardite       -0.25     -1.30   -1.05  Na2SO4
  Trona            -9.89    -21.21  -11.33  Na3H(CO3)2:2H2O

**For a gas, SI = log10(fugacity). Fugacity = pressure * phi / 1 atm.
  For ideal gases, phi = 1.

Reaction step 7.

Using solution 1.	
Using pure phase assemblage 1.	
Using gas phase 1.	
Using reaction 1.	

Reaction 1.	

	  2.800e+00 moles of the following reaction have been added:

	                 Relative
	Reactant            moles

	CO2                  1.00000

	                 Relative
	Element             moles
	C                    1.00000
	O                    2.00000

-----------------------------------Gas phase-----------------------------------

Total pressure: 78.91      atmospheres          (Peng-Robinson calculation)
    Gas volume:   1.00e+00 liters
  Molar volume:   3.66e-01 liters/mole
   P * Vm / RT:  0.85166  (Compressibility Factor Z) 

                                                        Moles in gas
                                            ----------------------------------
Component         log P           P    phi     Initial       Final       Delta

CO2(g)             1.87   7.411e+01  0.868   0.000e+00   2.567e+00   2.567e+00
H2O(g)             0.68   4.794e+00  0.706   0.000e+00   1.660e-01   1.660e-01

-----------------------------Solution composition------------------------------

	Elements           Molality       Moles

	C                 2.340e-01   2.332e-01
	Na                4.013e+00   4.000e+00
	S                 2.007e+00   2.000e+00

----------------------------Description of solution----------------------------

                                       pH  =   4.335      Charge balance
                                       pe  =   4.000      Adjusted to redox equilibrium
      Specific Conductance (µS/cm, 140°C)  = 310965
                          Density (g/cm³)  =   1.11909
                               Volume (L)  =   1.15394
                        Viscosity (mPa s)  =   0.42903
                        Activity of water  =   0.931
                 Ionic strength (mol/kgw)  =   6.006e+00
                       Mass of water (kg)  =   9.968e-01
                 Total alkalinity (eq/kg)  =   1.084e-11
                       Total CO2 (mol/kg)  =   2.340e-01
                         Temperature (°C)  = 140.00
                           Pressure (atm)  = 78.91
                  Electrical balance (eq)  =   3.512e-09
 Percent error, 100*(Cat-|An|)/(Cat+|An|)  =   0.00
                               Iterations  =  44
                         Gamma iterations  =   5
                      Osmotic coefficient  =   0.63596
                         Density of water  =   0.92614
                                  Total H  = 1.106804e+02
                                  Total O  = 6.380671e+01

----------------------------Distribution of species----------------------------

                                                    MacInnes  MacInnes
                                MacInnes       Log       Log       Log    mole V
   Species          Molality    Activity  Molality  Activity     Gamma   cm³/mol

   H+              1.663e-04   4.624e-05    -3.779    -4.335    -0.556      0.00
   OH-             7.272e-08   3.950e-08    -7.138    -7.403    -0.265      3.52
   H2O             5.551e+01   9.309e-01     1.744    -0.031     0.000     19.45
C(4)          2.340e-01
   CO2             2.200e-01   5.033e-01    -0.658    -0.298     0.359     42.81
   HCO3-           1.397e-02   2.276e-03    -1.855    -2.643    -0.788     31.42
   CO3-2           4.925e-08   2.449e-09    -7.308    -8.611    -1.303     -1.45
Na            4.013e+00
   Na+             4.013e+00   1.407e+00     0.603     0.148    -0.455      2.26
S(6)          2.007e+00
   SO4-2           1.993e+00   2.581e-02     0.299    -1.588    -1.888     29.30
   HSO4-           1.380e-02   4.261e-03    -1.860    -2.370    -0.510     44.50

------------------------------Saturation indices-------------------------------

  Phase               SI** log IAP   log K(413 K,  79 atm)

  Burkeite        -10.21    -10.90   -0.69  Na6CO3(SO4)2
  CO2(g)            1.81     -0.30   -2.11  CO2	 Pressure  74.1 atm, phi 0.868
  H2O(g)            0.53     -0.03   -0.56  H2O	 Pressure   4.8 atm, phi 0.706
  Mirabilite       -1.67     -1.60    0.07  Na2SO4:10H2O
  Nahcolite        -2.09    -12.80  -10.70  NaHCO3
  Natron           -7.60     -8.63   -1.02  Na2CO3:10H2O
  Thenardite       -0.24     -1.29   -1.05  Na2SO4
  Trona            -9.85    -21.17  -11.32  Na3H(CO3)2:2H2O

**For a gas, SI = log10(fugacity). Fugacity = pressure * phi / 1 atm.
  For ideal gases, phi = 1.

Reaction step 8.

Using solution 1.	
Using pure phase assemblage 1.	
Using gas phase 1.	
Using reaction 1.	

Reaction 1.	

	  3.200e+00 moles of the following reaction have been added:

	                 Relative
	Reactant            moles

	CO2                  1.00000

	                 Relative
	Element             moles
	C                    1.00000
	O                    2.00000

-----------------------------------Gas phase-----------------------------------

Total pressure: 88.54      atmospheres          (Peng-Robinson calculation)
    Gas volume:   1.00e+00 liters
  Molar volume:   3.20e-01 liters/mole
   P * Vm / RT:  0.83662  (Compressibility Factor Z) 

                                                        Moles in gas
                                            ----------------------------------
Component         log P           P    phi     Initial       Final       Delta

CO2(g)             1.92   8.352e+01  0.854   0.000e+00   2.944e+00   2.944e+00
H2O(g)             0.70   5.027e+00  0.677   0.000e+00   1.772e-01   1.772e-01

-----------------------------Solution composition------------------------------

	Elements           Molality       Moles

	C                 2.564e-01   2.556e-01
	Na                4.014e+00   4.000e+00
	S                 2.007e+00   2.000e+00

----------------------------Description of solution----------------------------

                                       pH  =   4.314      Charge balance
                                       pe  =   4.000      Adjusted to redox equilibrium
      Specific Conductance (µS/cm, 140°C)  = 311521
                          Density (g/cm³)  =   1.11918
                               Volume (L)  =   1.15454
                        Viscosity (mPa s)  =   0.42923
                        Activity of water  =   0.930
                 Ionic strength (mol/kgw)  =   6.006e+00
                       Mass of water (kg)  =   9.965e-01
                 Total alkalinity (eq/kg)  =   1.531e-11
                       Total CO2 (mol/kg)  =   2.564e-01
                         Temperature (°C)  = 140.00
                           Pressure (atm)  = 88.54
                  Electrical balance (eq)  =   3.499e-09
 Percent error, 100*(Cat-|An|)/(Cat+|An|)  =   0.00
                               Iterations  =  46
                         Gamma iterations  =   5
                      Osmotic coefficient  =   0.64038
                         Density of water  =   0.92614
                                  Total H  = 1.106580e+02
                                  Total O  = 6.384015e+01

----------------------------Distribution of species----------------------------

                                                    MacInnes  MacInnes
                                MacInnes       Log       Log       Log    mole V
   Species          Molality    Activity  Molality  Activity     Gamma   cm³/mol

   H+              1.744e-04   4.857e-05    -3.758    -4.314    -0.555      0.00
   OH-             6.942e-08   3.776e-08    -7.159    -7.423    -0.265      3.44
   H2O             5.551e+01   9.301e-01     1.744    -0.031     0.000     19.45
C(4)          2.564e-01
   CO2             2.418e-01   5.513e-01    -0.617    -0.259     0.358     42.75
   HCO3-           1.466e-02   2.392e-03    -1.834    -2.621    -0.787     31.44
   CO3-2           4.957e-08   2.473e-09    -7.305    -8.607    -1.302     -1.43
Na            4.014e+00
   Na+             4.014e+00   1.413e+00     0.604     0.150    -0.453      2.28
S(6)          2.007e+00
   SO4-2           1.992e+00   2.593e-02     0.299    -1.586    -1.886     29.20
   HSO4-           1.449e-02   4.478e-03    -1.839    -2.349    -0.510     44.45

------------------------------Saturation indices-------------------------------

  Phase               SI** log IAP   log K(413 K,  89 atm)

  Burkeite        -10.20    -10.88   -0.68  Na6CO3(SO4)2
  CO2(g)            1.85     -0.26   -2.11  CO2	 Pressure  83.5 atm, phi 0.854
  H2O(g)            0.53     -0.03   -0.56  H2O	 Pressure   5.0 atm, phi 0.677
  Mirabilite       -1.67     -1.60    0.07  Na2SO4:10H2O
  Nahcolite        -2.07    -12.77  -10.70  NaHCO3
  Natron           -7.57     -8.62   -1.05  Na2CO3:10H2O
  Thenardite       -0.24     -1.29   -1.05  Na2SO4
  Trona            -9.83    -21.14  -11.31  Na3H(CO3)2:2H2O

**For a gas, SI = log10(fugacity). Fugacity = pressure * phi / 1 atm.
  For ideal gases, phi = 1.

Reaction step 9.

Using solution 1.	
Using pure phase assemblage 1.	
Using gas phase 1.	
Using reaction 1.	

Reaction 1.	

	  3.600e+00 moles of the following reaction have been added:

	                 Relative
	Reactant            moles

	CO2                  1.00000

	                 Relative
	Element             moles
	C                    1.00000
	O                    2.00000

-----------------------------------Gas phase-----------------------------------

Total pressure: 97.96      atmospheres          (Peng-Robinson calculation)
    Gas volume:   1.00e+00 liters
  Molar volume:   2.85e-01 liters/mole
   P * Vm / RT:  0.82257  (Compressibility Factor Z) 

                                                        Moles in gas
                                            ----------------------------------
Component         log P           P    phi     Initial       Final       Delta

CO2(g)             1.97   9.270e+01  0.841   0.000e+00   3.324e+00   3.324e+00
H2O(g)             0.72   5.268e+00  0.649   0.000e+00   1.889e-01   1.889e-01

-----------------------------Solution composition------------------------------

	Elements           Molality       Moles

	C                 2.771e-01   2.761e-01
	Na                4.015e+00   4.000e+00
	S                 2.007e+00   2.000e+00

----------------------------Description of solution----------------------------

                                       pH  =   4.295      Charge balance
                                       pe  =   4.000      Adjusted to redox equilibrium
      Specific Conductance (µS/cm, 140°C)  = 312060
                          Density (g/cm³)  =   1.11927
                               Volume (L)  =   1.15507
                        Viscosity (mPa s)  =   0.42943
                        Activity of water  =   0.929
                 Ionic strength (mol/kgw)  =   6.007e+00
                       Mass of water (kg)  =   9.963e-01
                 Total alkalinity (eq/kg)  =   2.045e-11
                       Total CO2 (mol/kg)  =   2.771e-01
                         Temperature (°C)  = 140.00
                           Pressure (atm)  = 97.96
                  Electrical balance (eq)  =   3.485e-09
 Percent error, 100*(Cat-|An|)/(Cat+|An|)  =   0.00
                               Iterations  =  45
                         Gamma iterations  =   5
                      Osmotic coefficient  =   0.64445
                         Density of water  =   0.92614
                                  Total H  = 1.106347e+02
                                  Total O  = 6.386960e+01

----------------------------Distribution of species----------------------------

                                                    MacInnes  MacInnes
                                MacInnes       Log       Log       Log    mole V
   Species          Molality    Activity  Molality  Activity     Gamma   cm³/mol

   H+              1.816e-04   5.065e-05    -3.741    -4.295    -0.554      0.00
   OH-             6.675e-08   3.635e-08    -7.176    -7.440    -0.264      3.37
   H2O             5.551e+01   9.295e-01     1.744    -0.032     0.000     19.45
C(4)          2.771e-01
   CO2             2.619e-01   5.953e-01    -0.582    -0.225     0.357     42.70
   HCO3-           1.529e-02   2.496e-03    -1.816    -2.603    -0.787     31.46
   CO3-2           4.987e-08   2.497e-09    -7.302    -8.603    -1.300     -1.41
Na            4.015e+00
   Na+             4.015e+00   1.419e+00     0.604     0.152    -0.452      2.30
S(6)          2.007e+00
   SO4-2           1.992e+00   2.606e-02     0.299    -1.584    -1.883     29.12
   HSO4-           1.510e-02   4.672e-03    -1.821    -2.331    -0.510     44.40

------------------------------Saturation indices-------------------------------

  Phase               SI** log IAP   log K(413 K,  98 atm)

  Burkeite        -10.19    -10.86   -0.67  Na6CO3(SO4)2
  CO2(g)            1.89     -0.23   -2.12  CO2	 Pressure  92.7 atm, phi 0.841
  H2O(g)            0.53     -0.03   -0.57  H2O	 Pressure   5.3 atm, phi 0.649
  Mirabilite       -1.66     -1.60    0.06  Na2SO4:10H2O
  Nahcolite        -2.05    -12.75  -10.70  NaHCO3
  Natron           -7.55     -8.62   -1.07  Na2CO3:10H2O
  Thenardite       -0.24     -1.28   -1.04  Na2SO4
  Trona            -9.80    -21.11  -11.31  Na3H(CO3)2:2H2O

**For a gas, SI = log10(fugacity). Fugacity = pressure * phi / 1 atm.
  For ideal gases, phi = 1.

Reaction step 10.

Using solution 1.	
Using pure phase assemblage 1.	
Using gas phase 1.	
Using reaction 1.	

Reaction 1.	

	  4.000e+00 moles of the following reaction have been added:

	                 Relative
	Reactant            moles

	CO2                  1.00000

	                 Relative
	Element             moles
	C                    1.00000
	O                    2.00000

-----------------------------------Gas phase-----------------------------------

Total pressure: 107.19      atmospheres          (Peng-Robinson calculation)
    Gas volume:   1.00e+00 liters
  Molar volume:   2.56e-01 liters/mole
   P * Vm / RT:  0.80949  (Compressibility Factor Z) 

                                                        Moles in gas
                                            ----------------------------------
Component         log P           P    phi     Initial       Final       Delta

CO2(g)             2.01   1.017e+02  0.828   0.000e+00   3.705e+00   3.705e+00
H2O(g)             0.74   5.516e+00  0.623   0.000e+00   2.010e-01   2.010e-01

-----------------------------Solution composition------------------------------

	Elements           Molality       Moles

	C                 2.963e-01   2.951e-01
	Na                4.016e+00   4.000e+00
	S                 2.008e+00   2.000e+00

----------------------------Description of solution----------------------------

                                       pH  =   4.280      Charge balance
                                       pe  =   4.000      Adjusted to redox equilibrium
      Specific Conductance (µS/cm, 140°C)  = 312584
                          Density (g/cm³)  =   1.11937
                               Volume (L)  =   1.15552
                        Viscosity (mPa s)  =   0.42963
                        Activity of water  =   0.929
                 Ionic strength (mol/kgw)  =   6.008e+00
                       Mass of water (kg)  =   9.961e-01
                 Total alkalinity (eq/kg)  =   5.656e-12
                       Total CO2 (mol/kg)  =   2.963e-01
                         Temperature (°C)  = 140.00
                           Pressure (atm)  = 107.19
                  Electrical balance (eq)  =   1.895e-09
 Percent error, 100*(Cat-|An|)/(Cat+|An|)  =   0.00
                               Iterations  =  48
                         Gamma iterations  =   5
                      Osmotic coefficient  =   0.64822
                         Density of water  =   0.92614
                                  Total H  = 1.106105e+02
                                  Total O  = 6.389549e+01

----------------------------Distribution of species----------------------------

                                                    MacInnes  MacInnes
                                MacInnes       Log       Log       Log    mole V
   Species          Molality    Activity  Molality  Activity     Gamma   cm³/mol

   H+              1.880e-04   5.253e-05    -3.726    -4.280    -0.554      0.00
   OH-             6.454e-08   3.518e-08    -7.190    -7.454    -0.264      3.30
   H2O             5.551e+01   9.289e-01     1.744    -0.032     0.000     19.45
C(4)          2.963e-01
   CO2             2.804e-01   6.358e-01    -0.552    -0.197     0.356     42.65
   HCO3-           1.584e-02   2.589e-03    -1.800    -2.587    -0.787     31.48
   CO3-2           5.017e-08   2.520e-09    -7.300    -8.599    -1.299     -1.40
Na            4.016e+00
   Na+             4.016e+00   1.425e+00     0.604     0.154    -0.450      2.32
S(6)          2.008e+00
   SO4-2           1.992e+00   2.618e-02     0.299    -1.582    -1.881     29.03
   HSO4-           1.566e-02   4.847e-03    -1.805    -2.314    -0.509     44.35

------------------------------Saturation indices-------------------------------

  Phase               SI** log IAP   log K(413 K, 107 atm)

  Burkeite        -10.18    -10.84   -0.66  Na6CO3(SO4)2
  CO2(g)            1.93     -0.20   -2.12  CO2	 Pressure 101.7 atm, phi 0.828
  H2O(g)            0.54     -0.03   -0.57  H2O	 Pressure   5.5 atm, phi 0.623
  Mirabilite       -1.66     -1.60    0.06  Na2SO4:10H2O
  Nahcolite        -2.03    -12.72  -10.69  NaHCO3
  Natron           -7.52     -8.61   -1.09  Na2CO3:10H2O
  Thenardite       -0.23     -1.27   -1.04  Na2SO4
  Trona            -9.78    -21.08  -11.30  Na3H(CO3)2:2H2O

**For a gas, SI = log10(fugacity). Fugacity = pressure * phi / 1 atm.
  For ideal gases, phi = 1.

------------------
End of simulation.
------------------

------------------------------------
Reading input data for simulation 3.
------------------------------------

