   Input file: P_Vm
  Output file: P_Vm.out
Database file: ../database/phreeqc.dat

------------------
Reading data base.
------------------

	SOLUTION_MASTER_SPECIES
	SOLUTION_SPECIES
	PHASES
	EXCHANGE_MASTER_SPECIES
	EXCHANGE_SPECIES
	SURFACE_MASTER_SPECIES
	SURFACE_SPECIES
	RATES
	END
------------------------------------
Reading input data for simulation 1.
------------------------------------

	DATABASE ../database/phreeqc.dat
	SOLUTION_SPECIES
	HS- + H+ = H2S
		log_k	6.994
		delta_h -5.30	kcal
		analytical_expression  -11.17   0.02386  3279.0
		dw	 2.1e-9
		vm  7.81  2.96  -0.46 # supcrit
	2 NO3- + 12 H+ + 10 e- = N2 + 6 H2O
		log_k	207.08
		delta_h -312.130	kcal
		dw	 1.96e-9
		vm 7 # Pray et al., 1952, IEC 44. 1146
	CO3-2 + 2 H+ = CO2 + H2O
		log_k	   16.6767
		delta_h	 -5.738  kcal
		analytical_expression    464.1925    0.09344813  -26986.16	-165.75951   2248628.9
		dw	 1.92e-9
		vm   12.84 -24.3 11.1 1.52  # supcrt modified
	CO3-2 + 10 H+ + 8 e- = CH4 + 3 H2O
		log_k	41.071
		delta_h -61.039 kcal
		dw	 1.85e-9
		vm 7.7
	SOLUTION 1#; -temp 200
	INCREMENTAL_REACTIONS
	GAS_PHASE 1
	 fixed_volume
	 CO2(g) 0
	 H2O(g) 0
	REACTION 1
	 CO2 1
	 27 in 20
	 USER_GRAPH
	 -headings Vm CO2
	 -axis_titles "Gas Molar Volume / (L/mole)" "Gas Pressure / atm"
	 -axis_scale x_axis 0 1
	 -axis_scale y_axis 0 500
	 10 graph_x gas_vm
	 20 graph_y gas_p
	END
-------------------------------------------
Beginning of initial solution calculations.
-------------------------------------------

Initial solution 1.	

-----------------------------Solution composition------------------------------

	Elements           Molality       Moles

	Pure water     

----------------------------Description of solution----------------------------

                                       pH  =   7.000    
                                       pe  =   4.000    
       Specific Conductance (uS/cm, 25 oC) = 0
                          Density (g/cm3)  =   0.99704
                        Activity of water  =   1.000
                           Ionic strength  =   1.002e-07
                       Mass of water (kg)  =   1.000e+00
                 Total alkalinity (eq/kg)  =   2.208e-10
                    Total carbon (mol/kg)  =   0.000e+00
                       Total CO2 (mol/kg)  =   0.000e+00
                      Temperature (deg C)  =  25.00
                  Electrical balance (eq)  =  -2.208e-10
 Percent error, 100*(Cat-|An|)/(Cat+|An|)  =  -0.11
                               Iterations  =   0
                                  Total H  = 1.110124e+02
                                  Total O  = 5.550622e+01

----------------------------Distribution of species----------------------------

                                               Log       Log       Log    mole V
   Species          Molality    Activity  Molality  Activity     Gamma   cm3/mol

   OH-             1.003e-07   1.002e-07    -6.999    -6.999    -0.000     -4.11
   H+              1.001e-07   1.000e-07    -7.000    -7.000    -0.000      0.00
   H2O             5.551e+01   1.000e+00     1.744     0.000     0.000     18.07
H(0)          1.416e-25
   H2              7.079e-26   7.079e-26   -25.150   -25.150     0.000     28.61
O(0)          0.000e+00
   O2              0.000e+00   0.000e+00   -42.080   -42.080     0.000     30.40

------------------------------Saturation indices-------------------------------

	Phase               SI   log IAP   log K(298 K,   1 atm)

	H2(g)           -22.05    -25.15   -3.10  H2
	H2O(g)           -1.50      0.00    1.50  H2O
	O2(g)           -39.19    -42.08   -2.89  O2


-----------------------------------------
Beginning of batch-reaction calculations.
-----------------------------------------

Reaction step 1.

Using solution 1.	
Using gas phase 1.	
Using reaction 1.	

Reaction 1.	

	  1.350e+00 moles of the following reaction have been added:

	                 Relative
	Reactant            moles

	CO2                  1.00000

	                 Relative
	Element             moles
	C                    1.00000
	O                    2.00000

-----------------------------------Gas phase-----------------------------------

Total pressure: 17.70      atmospheres          (Peng-Robinson calculation)
    Gas volume:   1.00e+00 liters
  Molar volume:   1.24e+00 liters/mole
   P * Vm / RT:  0.89625  (Compressibility Factor Z) 

                                                        Moles in gas
                                            ----------------------------------
Component         log P           P    phi     Initial       Final       Delta

CO2(g)             1.25   1.766e+01  0.904   0.000e+00   8.054e-01   8.054e-01
H2O(g)            -1.42   3.761e-02  0.838   0.000e+00   1.715e-03   1.715e-03

-----------------------------Solution composition------------------------------

	Elements           Molality       Moles

	C                 5.446e-01   5.446e-01

----------------------------Description of solution----------------------------

                                       pH  =   3.305      Charge balance
                                       pe  =  15.056      Adjusted to redox equilibrium
       Specific Conductance (uS/cm, 25 oC) = 197
                          Density (g/cm3)  =   1.00804
                        Activity of water  =   0.991
                           Ionic strength  =   5.076e-04
                       Mass of water (kg)  =   1.000e+00
                 Total alkalinity (eq/kg)  =   2.211e-10
                       Total CO2 (mol/kg)  =   5.446e-01
                      Temperature (deg C)  =  25.00
                           Pressure (atm)  = 17.70
                  Electrical balance (eq)  =  -2.211e-10
 Percent error, 100*(Cat-|An|)/(Cat+|An|)  =  -0.00
                               Iterations  =  54
                                  Total H  = 1.110090e+02
                                  Total O  = 5.659361e+01

----------------------------Distribution of species----------------------------

                                               Log       Log       Log    mole V
   Species          Molality    Activity  Molality  Activity     Gamma   cm3/mol

   H+              5.076e-04   4.952e-04    -3.294    -3.305    -0.011      0.00
   OH-             2.089e-11   2.036e-11   -10.680   -10.691    -0.011     -4.03
   H2O             5.551e+01   9.907e-01     1.744    -0.004     0.000     18.06
C(-4)         0.000e+00
   CH4             0.000e+00   0.000e+00  -122.767  -122.767     0.000     32.22
C(4)          5.446e-01
   CO2             5.441e-01   5.441e-01    -0.264    -0.264     0.000     24.97
   HCO3-           5.076e-04   4.949e-04    -3.294    -3.306    -0.011     24.63
   CO3-2           5.290e-11   4.779e-11   -10.277   -10.321    -0.044     -3.89
H(0)          2.626e-40
   H2              1.313e-40   1.313e-40   -39.882   -39.882     0.000     28.60
O(0)          4.580e-13
   O2              2.290e-13   2.290e-13   -12.640   -12.640     0.000     30.38

------------------------------Saturation indices-------------------------------

	Phase               SI   log IAP   log K(298 K,  18 atm)

	CH4(g)         -119.94   -122.77   -2.83  CH4
	CO2(g)            1.19     -0.26   -1.45  CO2	 Pressure  17.7 atm, phi 0.904.
	H2(g)           -36.78    -39.88   -3.10  H2
	H2O(g)           -1.50     -0.00    1.50  H2O	 Pressure   0.0 atm, phi 0.838.
	O2(g)            -9.74    -12.64   -2.90  O2


Reaction step 2.

Using solution 1.	
Using gas phase 1.	
Using reaction 1.	

Reaction 1.	

	  1.350e+00 moles of the following reaction have been added:

	                 Relative
	Reactant            moles

	CO2                  1.00000

	                 Relative
	Element             moles
	C                    1.00000
	O                    2.00000

-----------------------------------Gas phase-----------------------------------

Total pressure: 34.04      atmospheres          (Peng-Robinson calculation)
    Gas volume:   1.00e+00 liters
  Molar volume:   5.65e-01 liters/mole
   P * Vm / RT:  0.78653  (Compressibility Factor Z) 

                                                        Moles in gas
                                            ----------------------------------
Component         log P           P    phi     Initial       Final       Delta

CO2(g)             1.53   3.400e+01  0.819   8.054e-01   1.767e+00   9.612e-01
H2O(g)            -1.34   4.562e-02  0.694   1.715e-03   2.371e-03   6.556e-04

-----------------------------Solution composition------------------------------

	Elements           Molality       Moles

	C                 9.334e-01   9.334e-01

----------------------------Description of solution----------------------------

                                       pH  =   3.187      Charge balance
                                       pe  =  15.177      Adjusted to redox equilibrium
       Specific Conductance (uS/cm, 25 oC) = 259
                          Density (g/cm3)  =   1.01571
                        Activity of water  =   0.984
                           Ionic strength  =   6.689e-04
                       Mass of water (kg)  =   9.999e-01
                 Total alkalinity (eq/kg)  =   2.213e-10
                       Total CO2 (mol/kg)  =   9.334e-01
                      Temperature (deg C)  =  25.00
                           Pressure (atm)  = 34.04
                  Electrical balance (eq)  =  -2.212e-10
 Percent error, 100*(Cat-|An|)/(Cat+|An|)  =  -0.00
                               Iterations  =  26
                                  Total H  = 1.110077e+02
                                  Total O  = 5.737059e+01

----------------------------Distribution of species----------------------------

                                               Log       Log       Log    mole V
   Species          Molality    Activity  Molality  Activity     Gamma   cm3/mol

   H+              6.689e-04   6.503e-04    -3.175    -3.187    -0.012      0.00
   OH-             1.609e-11   1.562e-11   -10.793   -10.806    -0.013     -3.96
   H2O             5.551e+01   9.841e-01     1.744    -0.007     0.000     18.04
C(-4)         0.000e+00
   CH4             0.000e+00   0.000e+00  -122.554  -122.554     0.000     32.22
C(4)          9.334e-01
   CO2             9.328e-01   9.329e-01    -0.030    -0.030     0.000     25.19
   HCO3-           6.689e-04   6.498e-04    -3.175    -3.187    -0.013     24.69
   CO3-2           5.468e-11   4.869e-11   -10.262   -10.313    -0.050     -3.76
H(0)          2.555e-40
   H2              1.278e-40   1.278e-40   -39.894   -39.894     0.000     28.59
O(0)          4.613e-13
   O2              2.306e-13   2.307e-13   -12.637   -12.637     0.000     30.35

------------------------------Saturation indices-------------------------------

	Phase               SI   log IAP   log K(298 K,  34 atm)

	CH4(g)         -119.75   -122.55   -2.81  CH4
	CO2(g)            1.42     -0.03   -1.45  CO2	 Pressure  34.0 atm, phi 0.819.
	H2(g)           -36.79    -39.89   -3.10  H2
	H2O(g)           -1.50     -0.01    1.49  H2O	 Pressure   0.0 atm, phi 0.694.
	O2(g)            -9.72    -12.64   -2.91  O2


Reaction step 3.

Using solution 1.	
Using gas phase 1.	
Using reaction 1.	

Reaction 1.	

	  1.350e+00 moles of the following reaction have been added:

	                 Relative
	Reactant            moles

	CO2                  1.00000

	                 Relative
	Element             moles
	C                    1.00000
	O                    2.00000

-----------------------------------Gas phase-----------------------------------

Total pressure: 47.58      atmospheres          (Peng-Robinson calculation)
    Gas volume:   1.00e+00 liters
  Molar volume:   3.48e-01 liters/mole
   P * Vm / RT:  0.67623  (Compressibility Factor Z) 

                                                        Moles in gas
                                            ----------------------------------
Component         log P           P    phi     Initial       Final       Delta

CO2(g)             1.68   4.752e+01  0.750   1.767e+00   2.872e+00   1.106e+00
H2O(g)            -1.26   5.541e-02  0.575   2.371e-03   3.349e-03   9.783e-04

-----------------------------Solution composition------------------------------

	Elements           Molality       Moles

	C                 1.178e+00   1.178e+00

----------------------------Description of solution----------------------------

                                       pH  =   3.135      Charge balance
                                       pe  =  15.229      Adjusted to redox equilibrium
       Specific Conductance (uS/cm, 25 oC) = 292
                          Density (g/cm3)  =   1.02047
                        Activity of water  =   0.980
                           Ionic strength  =   7.550e-04
                       Mass of water (kg)  =   9.999e-01
                 Total alkalinity (eq/kg)  =   2.213e-10
                       Total CO2 (mol/kg)  =   1.178e+00
                      Temperature (deg C)  =  25.00
                           Pressure (atm)  = 47.58
                  Electrical balance (eq)  =  -2.213e-10
 Percent error, 100*(Cat-|An|)/(Cat+|An|)  =  -0.00
                               Iterations  =  22
                                  Total H  = 1.110057e+02
                                  Total O  = 5.785820e+01

----------------------------Distribution of species----------------------------

                                               Log       Log       Log    mole V
   Species          Molality    Activity  Molality  Activity     Gamma   cm3/mol

   H+              7.550e-04   7.329e-04    -3.122    -3.135    -0.013      0.00
   OH-             1.442e-11   1.397e-11   -10.841   -10.855    -0.014     -3.91
   H2O             5.551e+01   9.800e-01     1.744    -0.009     0.000     18.03
C(-4)         0.000e+00
   CH4             0.000e+00   0.000e+00  -122.469  -122.469     0.000     32.22
C(4)          1.178e+00
   CO2             1.177e+00   1.177e+00     0.071     0.071     0.000     25.37
   HCO3-           7.550e-04   7.322e-04    -3.122    -3.135    -0.013     24.73
   CO3-2           5.592e-11   4.946e-11   -10.252   -10.306    -0.053     -3.65
H(0)          2.503e-40
   H2              1.251e-40   1.251e-40   -39.903   -39.903     0.000     28.58
O(0)          4.634e-13
   O2              2.317e-13   2.318e-13   -12.635   -12.635     0.000     30.33

------------------------------Saturation indices-------------------------------

	Phase               SI   log IAP   log K(298 K,  48 atm)

	CH4(g)         -119.67   -122.47   -2.80  CH4
	CO2(g)            1.51      0.07   -1.44  CO2	 Pressure  47.5 atm, phi 0.750.
	H2(g)           -36.80    -39.90   -3.10  H2
	H2O(g)           -1.50     -0.01    1.49  H2O	 Pressure   0.1 atm, phi 0.575.
	O2(g)            -9.71    -12.63   -2.92  O2


Reaction step 4.

Using solution 1.	
Using gas phase 1.	
Using reaction 1.	

Reaction 1.	

	  1.350e+00 moles of the following reaction have been added:

	                 Relative
	Reactant            moles

	CO2                  1.00000

	                 Relative
	Element             moles
	C                    1.00000
	O                    2.00000

-----------------------------------Gas phase-----------------------------------

Total pressure: 57.27      atmospheres          (Peng-Robinson calculation)
    Gas volume:   1.00e+00 liters
  Molar volume:   2.44e-01 liters/mole
   P * Vm / RT:  0.57158  (Compressibility Factor Z) 

                                                        Moles in gas
                                            ----------------------------------
Component         log P           P    phi     Initial       Final       Delta

CO2(g)             1.76   5.720e+01  0.700   2.872e+00   4.090e+00   1.218e+00
H2O(g)            -1.18   6.649e-02  0.482   3.349e-03   4.754e-03   1.405e-03

-----------------------------Solution composition------------------------------

	Elements           Molality       Moles

	C                 1.310e+00   1.310e+00

----------------------------Description of solution----------------------------

                                       pH  =   3.111      Charge balance
                                       pe  =  15.255      Adjusted to redox equilibrium
       Specific Conductance (uS/cm, 25 oC) = 309
                          Density (g/cm3)  =   1.02305
                        Activity of water  =   0.978
                           Ionic strength  =   7.990e-04
                       Mass of water (kg)  =   9.999e-01
                 Total alkalinity (eq/kg)  =   2.214e-10
                       Total CO2 (mol/kg)  =   1.310e+00
                      Temperature (deg C)  =  25.00
                           Pressure (atm)  = 57.27
                  Electrical balance (eq)  =  -2.214e-10
 Percent error, 100*(Cat-|An|)/(Cat+|An|)  =  -0.00
                               Iterations  =  30
                                  Total H  = 1.110029e+02
                                  Total O  = 5.812075e+01

----------------------------Distribution of species----------------------------

                                               Log       Log       Log    mole V
   Species          Molality    Activity  Molality  Activity     Gamma   cm3/mol

   H+              7.990e-04   7.749e-04    -3.097    -3.111    -0.013      0.00
   OH-             1.373e-11   1.330e-11   -10.862   -10.876    -0.014     -3.88
   H2O             5.551e+01   9.777e-01     1.744    -0.010     0.000     18.02
C(-4)         0.000e+00
   CH4             0.000e+00   0.000e+00  -122.441  -122.441     0.000     32.22
C(4)          1.310e+00
   CO2             1.309e+00   1.309e+00     0.117     0.117     0.000     25.50
   HCO3-           7.990e-04   7.742e-04    -3.097    -3.111    -0.014     24.77
   CO3-2           5.673e-11   5.001e-11   -10.246   -10.301    -0.055     -3.58
H(0)          2.455e-40
   H2              1.228e-40   1.228e-40   -39.911   -39.911     0.000     28.58
O(0)          4.695e-13
   O2              2.348e-13   2.348e-13   -12.629   -12.629     0.000     30.32

------------------------------Saturation indices-------------------------------

	Phase               SI   log IAP   log K(298 K,  57 atm)

	CH4(g)         -119.66   -122.44   -2.79  CH4
	CO2(g)            1.56      0.12   -1.44  CO2	 Pressure  57.2 atm, phi 0.700.
	H2(g)           -36.81    -39.91   -3.10  H2
	H2O(g)           -1.49     -0.01    1.48  H2O	 Pressure   0.1 atm, phi 0.482.
	O2(g)            -9.70    -12.63   -2.93  O2


Reaction step 5.

Using solution 1.	
Using gas phase 1.	
Using reaction 1.	

Reaction 1.	

	  1.350e+00 moles of the following reaction have been added:

	                 Relative
	Reactant            moles

	CO2                  1.00000

	                 Relative
	Element             moles
	C                    1.00000
	O                    2.00000

-----------------------------------Gas phase-----------------------------------

Total pressure: 62.91      atmospheres          (Peng-Robinson calculation)
    Gas volume:   1.00e+00 liters
  Molar volume:   1.86e-01 liters/mole
   P * Vm / RT:  0.47722  (Compressibility Factor Z) 

                                                        Moles in gas
                                            ----------------------------------
Component         log P           P    phi     Initial       Final       Delta

CO2(g)             1.80   6.284e+01  0.670   4.090e+00   5.382e+00   1.291e+00
H2O(g)            -1.11   7.805e-02  0.412   4.754e-03   6.685e-03   1.930e-03

-----------------------------Solution composition------------------------------

	Elements           Molality       Moles

	C                 1.368e+00   1.368e+00

----------------------------Description of solution----------------------------

                                       pH  =   3.100      Charge balance
                                       pe  =  15.266      Adjusted to redox equilibrium
       Specific Conductance (uS/cm, 25 oC) = 316
                          Density (g/cm3)  =   1.02421
                        Activity of water  =   0.977
                           Ionic strength  =   8.183e-04
                       Mass of water (kg)  =   9.999e-01
                 Total alkalinity (eq/kg)  =   2.215e-10
                       Total CO2 (mol/kg)  =   1.368e+00
                      Temperature (deg C)  =  25.00
                           Pressure (atm)  = 62.91
                  Electrical balance (eq)  =  -2.214e-10
 Percent error, 100*(Cat-|An|)/(Cat+|An|)  =  -0.00
                               Iterations  =  38
                                  Total H  = 1.109991e+02
                                  Total O  = 5.823590e+01

----------------------------Distribution of species----------------------------

                                               Log       Log       Log    mole V
   Species          Molality    Activity  Molality  Activity     Gamma   cm3/mol

   H+              8.183e-04   7.935e-04    -3.087    -3.100    -0.013      0.00
   OH-             1.347e-11   1.304e-11   -10.871   -10.885    -0.014     -3.86
   H2O             5.551e+01   9.767e-01     1.744    -0.010     0.000     18.02
C(-4)         0.000e+00
   CH4             0.000e+00   0.000e+00  -122.430  -122.430     0.000     32.22
C(4)          1.368e+00
   CO2             1.368e+00   1.368e+00     0.136     0.136     0.000     25.58
   HCO3-           8.183e-04   7.927e-04    -3.087    -3.101    -0.014     24.78
   CO3-2           5.718e-11   5.033e-11   -10.243   -10.298    -0.055     -3.54
H(0)          2.432e-40
   H2              1.216e-40   1.216e-40   -39.915   -39.915     0.000     28.58
O(0)          4.718e-13
   O2              2.359e-13   2.360e-13   -12.627   -12.627     0.000     30.31

------------------------------Saturation indices-------------------------------

	Phase               SI   log IAP   log K(298 K,  63 atm)

	CH4(g)         -119.65   -122.43   -2.78  CH4
	CO2(g)            1.57      0.14   -1.44  CO2	 Pressure  62.8 atm, phi 0.670.
	H2(g)           -36.81    -39.91   -3.10  H2
	H2O(g)           -1.49     -0.01    1.48  H2O	 Pressure   0.1 atm, phi 0.412.
	O2(g)            -9.70    -12.63   -2.93  O2


Reaction step 6.

Using solution 1.	
Using gas phase 1.	
Using reaction 1.	

Reaction 1.	

	  1.350e+00 moles of the following reaction have been added:

	                 Relative
	Reactant            moles

	CO2                  1.00000

	                 Relative
	Element             moles
	C                    1.00000
	O                    2.00000

-----------------------------------Gas phase-----------------------------------

Total pressure: 65.06      atmospheres          (Peng-Robinson calculation)
    Gas volume:   1.00e+00 liters
  Molar volume:   1.49e-01 liters/mole
   P * Vm / RT:  0.39547  (Compressibility Factor Z) 

                                                        Moles in gas
                                            ----------------------------------
Component         log P           P    phi     Initial       Final       Delta

CO2(g)             1.81   6.497e+01  0.658   5.382e+00   6.715e+00   1.333e+00
H2O(g)            -1.05   8.927e-02  0.360   6.685e-03   9.227e-03   2.542e-03

-----------------------------Solution composition------------------------------

	Elements           Molality       Moles

	C                 1.386e+00   1.385e+00

----------------------------Description of solution----------------------------

                                       pH  =   3.097      Charge balance
                                       pe  =  15.271      Adjusted to redox equilibrium
       Specific Conductance (uS/cm, 25 oC) = 318
                          Density (g/cm3)  =   1.02457
                        Activity of water  =   0.976
                           Ionic strength  =   8.242e-04
                       Mass of water (kg)  =   9.998e-01
                 Total alkalinity (eq/kg)  =   2.215e-10
                       Total CO2 (mol/kg)  =   1.386e+00
                      Temperature (deg C)  =  25.00
                           Pressure (atm)  = 65.06
                  Electrical balance (eq)  =  -2.214e-10
 Percent error, 100*(Cat-|An|)/(Cat+|An|)  =  -0.00
                               Iterations  =  46
                                  Total H  = 1.109940e+02
                                  Total O  = 5.826796e+01

----------------------------Distribution of species----------------------------

                                               Log       Log       Log    mole V
   Species          Molality    Activity  Molality  Activity     Gamma   cm3/mol

   H+              8.242e-04   7.990e-04    -3.084    -3.097    -0.013      0.00
   OH-             1.340e-11   1.297e-11   -10.873   -10.887    -0.014     -3.85
   H2O             5.551e+01   9.764e-01     1.744    -0.010     0.000     18.02
C(-4)         0.000e+00
   CH4             0.000e+00   0.000e+00  -122.438  -122.438     0.000     32.22
C(4)          1.386e+00
   CO2             1.385e+00   1.385e+00     0.141     0.142     0.000     25.61
   HCO3-           8.242e-04   7.982e-04    -3.084    -3.098    -0.014     24.79
   CO3-2           5.734e-11   5.046e-11   -10.242   -10.297    -0.056     -3.52
H(0)          2.409e-40
   H2              1.205e-40   1.205e-40   -39.919   -39.919     0.000     28.58
O(0)          4.785e-13
   O2              2.392e-13   2.393e-13   -12.621   -12.621     0.000     30.31

------------------------------Saturation indices-------------------------------

	Phase               SI   log IAP   log K(298 K,  65 atm)

	CH4(g)         -119.66   -122.44   -2.78  CH4
	CO2(g)            1.58      0.14   -1.44  CO2	 Pressure  65.0 atm, phi 0.658.
	H2(g)           -36.82    -39.92   -3.10  H2
	H2O(g)           -1.49     -0.01    1.48  H2O	 Pressure   0.1 atm, phi 0.360.
	O2(g)            -9.69    -12.62   -2.93  O2


Reaction step 7.

Using solution 1.	
Using gas phase 1.	
Using reaction 1.	

Reaction 1.	

	  1.350e+00 moles of the following reaction have been added:

	                 Relative
	Reactant            moles

	CO2                  1.00000

	                 Relative
	Element             moles
	C                    1.00000
	O                    2.00000

-----------------------------------Gas phase-----------------------------------

Total pressure: 65.14      atmospheres          (Peng-Robinson calculation)
    Gas volume:   1.00e+00 liters
  Molar volume:   1.24e-01 liters/mole
   P * Vm / RT:  0.32965  (Compressibility Factor Z) 

                                                        Moles in gas
                                            ----------------------------------
Component         log P           P    phi     Initial       Final       Delta

CO2(g)             1.81   6.504e+01  0.657   6.715e+00   8.064e+00   1.350e+00
H2O(g)            -1.00   1.003e-01  0.321   9.227e-03   1.243e-02   3.204e-03

-----------------------------Solution composition------------------------------

	Elements           Molality       Moles

	C                 1.386e+00   1.386e+00

----------------------------Description of solution----------------------------

                                       pH  =   3.097      Charge balance
                                       pe  =  15.269      Adjusted to redox equilibrium
       Specific Conductance (uS/cm, 25 oC) = 318
                          Density (g/cm3)  =   1.02458
                        Activity of water  =   0.976
                           Ionic strength  =   8.243e-04
                       Mass of water (kg)  =   9.998e-01
                 Total alkalinity (eq/kg)  =   2.215e-10
                       Total CO2 (mol/kg)  =   1.386e+00
                      Temperature (deg C)  =  25.00
                           Pressure (atm)  = 65.14
                  Electrical balance (eq)  =  -2.214e-10
 Percent error, 100*(Cat-|An|)/(Cat+|An|)  =  -0.00
                               Iterations  =  50
                                  Total H  = 1.109876e+02
                                  Total O  = 5.826543e+01

----------------------------Distribution of species----------------------------

                                               Log       Log       Log    mole V
   Species          Molality    Activity  Molality  Activity     Gamma   cm3/mol

   H+              8.243e-04   7.992e-04    -3.084    -3.097    -0.013      0.00
   OH-             1.340e-11   1.297e-11   -10.873   -10.887    -0.014     -3.85
   H2O             5.551e+01   9.764e-01     1.744    -0.010     0.000     18.02
C(-4)         0.000e+00
   CH4             0.000e+00   0.000e+00  -122.424  -122.424     0.000     32.22
C(4)          1.386e+00
   CO2             1.385e+00   1.386e+00     0.142     0.142     0.000     25.61
   HCO3-           8.243e-04   7.984e-04    -3.084    -3.098    -0.014     24.79
   CO3-2           5.735e-11   5.046e-11   -10.241   -10.297    -0.056     -3.52
H(0)          2.429e-40
   H2              1.215e-40   1.215e-40   -39.916   -39.915     0.000     28.58
O(0)          4.705e-13
   O2              2.353e-13   2.353e-13   -12.628   -12.628     0.000     30.31

------------------------------Saturation indices-------------------------------

	Phase               SI   log IAP   log K(298 K,  65 atm)

	CH4(g)         -119.65   -122.42   -2.78  CH4
	CO2(g)            1.58      0.14   -1.44  CO2	 Pressure  65.0 atm, phi 0.657.
	H2(g)           -36.81    -39.92   -3.10  H2
	H2O(g)           -1.49     -0.01    1.48  H2O	 Pressure   0.1 atm, phi 0.321.
	O2(g)            -9.69    -12.63   -2.93  O2


Reaction step 8.

Using solution 1.	
Using gas phase 1.	
Using reaction 1.	

Reaction 1.	

	  1.350e+00 moles of the following reaction have been added:

	                 Relative
	Reactant            moles

	CO2                  1.00000

	                 Relative
	Element             moles
	C                    1.00000
	O                    2.00000

-----------------------------------Gas phase-----------------------------------

Total pressure: 65.12      atmospheres          (Peng-Robinson calculation)
    Gas volume:   1.00e+00 liters
  Molar volume:   1.06e-01 liters/mole
   P * Vm / RT:  0.28219  (Compressibility Factor Z) 

                                                        Moles in gas
                                            ----------------------------------
Component         log P           P    phi     Initial       Final       Delta

CO2(g)             1.81   6.501e+01  0.657   8.064e+00   9.416e+00   1.351e+00
H2O(g)            -0.95   1.126e-01  0.286   1.243e-02   1.631e-02   3.878e-03

-----------------------------Solution composition------------------------------

	Elements           Molality       Moles

	C                 1.385e+00   1.384e+00

----------------------------Description of solution----------------------------

                                       pH  =   3.098      Charge balance
                                       pe  =  15.271      Adjusted to redox equilibrium
       Specific Conductance (uS/cm, 25 oC) = 318
                          Density (g/cm3)  =   1.02455
                        Activity of water  =   0.976
                           Ionic strength  =   8.239e-04
                       Mass of water (kg)  =   9.997e-01
                 Total alkalinity (eq/kg)  =   2.215e-10
                       Total CO2 (mol/kg)  =   1.385e+00
                      Temperature (deg C)  =  25.00
                           Pressure (atm)  = 65.12
                  Electrical balance (eq)  =  -2.214e-10
 Percent error, 100*(Cat-|An|)/(Cat+|An|)  =  -0.00
                               Iterations  =  41
                                  Total H  = 1.109798e+02
                                  Total O  = 5.825856e+01

----------------------------Distribution of species----------------------------

                                               Log       Log       Log    mole V
   Species          Molality    Activity  Molality  Activity     Gamma   cm3/mol

   H+              8.239e-04   7.988e-04    -3.084    -3.098    -0.013      0.00
   OH-             1.340e-11   1.297e-11   -10.873   -10.887    -0.014     -3.85
   H2O             5.551e+01   9.764e-01     1.744    -0.010     0.000     18.02
C(-4)         0.000e+00
   CH4             0.000e+00   0.000e+00  -122.439  -122.439     0.000     32.22
C(4)          1.385e+00
   CO2             1.384e+00   1.384e+00     0.141     0.141     0.000     25.61
   HCO3-           8.239e-04   7.980e-04    -3.084    -3.098    -0.014     24.79
   CO3-2           5.734e-11   5.046e-11   -10.242   -10.297    -0.056     -3.52
H(0)          2.409e-40
   H2              1.204e-40   1.205e-40   -39.919   -39.919     0.000     28.58
O(0)          4.786e-13
   O2              2.393e-13   2.394e-13   -12.621   -12.621     0.000     30.31

------------------------------Saturation indices-------------------------------

	Phase               SI   log IAP   log K(298 K,  65 atm)

	CH4(g)         -119.66   -122.44   -2.78  CH4
	CO2(g)            1.58      0.14   -1.44  CO2	 Pressure  65.0 atm, phi 0.657.
	H2(g)           -36.82    -39.92   -3.10  H2
	H2O(g)           -1.49     -0.01    1.48  H2O	 Pressure   0.1 atm, phi 0.286.
	O2(g)            -9.69    -12.62   -2.93  O2


Reaction step 9.

Using solution 1.	
Using gas phase 1.	
Using reaction 1.	

Reaction 1.	

	  1.350e+00 moles of the following reaction have been added:

	                 Relative
	Reactant            moles

	CO2                  1.00000

	                 Relative
	Element             moles
	C                    1.00000
	O                    2.00000

-----------------------------------Gas phase-----------------------------------

Total pressure: 65.10      atmospheres          (Peng-Robinson calculation)
    Gas volume:   1.00e+00 liters
  Molar volume:   9.27e-02 liters/mole
   P * Vm / RT:  0.24661  (Compressibility Factor Z) 

                                                        Moles in gas
                                            ----------------------------------
Component         log P           P    phi     Initial       Final       Delta

CO2(g)             1.81   6.497e+01  0.656   9.416e+00   1.077e+01   1.353e+00
H2O(g)            -0.90   1.264e-01  0.254   1.631e-02   2.096e-02   4.648e-03

-----------------------------Solution composition------------------------------

	Elements           Molality       Moles

	C                 1.382e+00   1.382e+00

----------------------------Description of solution----------------------------

                                       pH  =   3.098      Charge balance
                                       pe  =  15.272      Adjusted to redox equilibrium
       Specific Conductance (uS/cm, 25 oC) = 318
                          Density (g/cm3)  =   1.02451
                        Activity of water  =   0.976
                           Ionic strength  =   8.231e-04
                       Mass of water (kg)  =   9.996e-01
                 Total alkalinity (eq/kg)  =   2.215e-10
                       Total CO2 (mol/kg)  =   1.382e+00
                      Temperature (deg C)  =  25.00
                           Pressure (atm)  = 65.10
                  Electrical balance (eq)  =  -2.214e-10
 Percent error, 100*(Cat-|An|)/(Cat+|An|)  =  -0.00
                               Iterations  =  49
                                  Total H  = 1.109705e+02
                                  Total O  = 5.824844e+01

----------------------------Distribution of species----------------------------

                                               Log       Log       Log    mole V
   Species          Molality    Activity  Molality  Activity     Gamma   cm3/mol

   H+              8.231e-04   7.980e-04    -3.085    -3.098    -0.013      0.00
   OH-             1.342e-11   1.299e-11   -10.872   -10.887    -0.014     -3.85
   H2O             5.551e+01   9.765e-01     1.744    -0.010     0.000     18.02
C(-4)         0.000e+00
   CH4             0.000e+00   0.000e+00  -122.454  -122.454     0.000     32.22
C(4)          1.382e+00
   CO2             1.381e+00   1.382e+00     0.140     0.140     0.000     25.61
   HCO3-           8.231e-04   7.972e-04    -3.085    -3.098    -0.014     24.79
   CO3-2           5.734e-11   5.046e-11   -10.242   -10.297    -0.056     -3.52
H(0)          2.389e-40
   H2              1.194e-40   1.195e-40   -39.923   -39.923     0.000     28.58
O(0)          4.867e-13
   O2              2.434e-13   2.434e-13   -12.614   -12.614     0.000     30.31

------------------------------Saturation indices-------------------------------

	Phase               SI   log IAP   log K(298 K,  65 atm)

	CH4(g)         -119.68   -122.45   -2.78  CH4
	CO2(g)            1.58      0.14   -1.44  CO2	 Pressure  65.0 atm, phi 0.656.
	H2(g)           -36.82    -39.92   -3.10  H2
	H2O(g)           -1.49     -0.01    1.48  H2O	 Pressure   0.1 atm, phi 0.254.
	O2(g)            -9.68    -12.61   -2.93  O2


Reaction step 10.

Using solution 1.	
Using gas phase 1.	
Using reaction 1.	

Reaction 1.	

	  1.350e+00 moles of the following reaction have been added:

	                 Relative
	Reactant            moles

	CO2                  1.00000

	                 Relative
	Element             moles
	C                    1.00000
	O                    2.00000

-----------------------------------Gas phase-----------------------------------

Total pressure: 65.07      atmospheres          (Peng-Robinson calculation)
    Gas volume:   1.00e+00 liters
  Molar volume:   8.23e-02 liters/mole
   P * Vm / RT:  0.21894  (Compressibility Factor Z) 

                                                        Moles in gas
                                            ----------------------------------
Component         log P           P    phi     Initial       Final       Delta

CO2(g)             1.81   6.493e+01  0.655   1.077e+01   1.212e+01   1.353e+00
H2O(g)            -0.85   1.418e-01  0.227   2.096e-02   2.647e-02   5.516e-03

-----------------------------Solution composition------------------------------

	Elements           Molality       Moles

	C                 1.379e+00   1.378e+00

----------------------------Description of solution----------------------------

                                       pH  =   3.098      Charge balance
                                       pe  =  15.269      Adjusted to redox equilibrium
       Specific Conductance (uS/cm, 25 oC) = 317
                          Density (g/cm3)  =   1.02445
                        Activity of water  =   0.977
                           Ionic strength  =   8.222e-04
                       Mass of water (kg)  =   9.995e-01
                 Total alkalinity (eq/kg)  =   2.216e-10
                       Total CO2 (mol/kg)  =   1.379e+00
                      Temperature (deg C)  =  25.00
                           Pressure (atm)  = 65.07
                  Electrical balance (eq)  =  -2.214e-10
 Percent error, 100*(Cat-|An|)/(Cat+|An|)  =  -0.00
                               Iterations  =  52
                                  Total H  = 1.109595e+02
                                  Total O  = 5.823647e+01

----------------------------Distribution of species----------------------------

                                               Log       Log       Log    mole V
   Species          Molality    Activity  Molality  Activity     Gamma   cm3/mol

   H+              8.222e-04   7.972e-04    -3.085    -3.098    -0.013      0.00
   OH-             1.343e-11   1.300e-11   -10.872   -10.886    -0.014     -3.85
   H2O             5.551e+01   9.765e-01     1.744    -0.010     0.000     18.02
C(-4)         0.000e+00
   CH4             0.000e+00   0.000e+00  -122.438  -122.438     0.000     32.22
C(4)          1.379e+00
   CO2             1.378e+00   1.378e+00     0.139     0.139     0.000     25.61
   HCO3-           8.222e-04   7.964e-04    -3.085    -3.099    -0.014     24.79
   CO3-2           5.733e-11   5.046e-11   -10.242   -10.297    -0.055     -3.52
H(0)          2.413e-40
   H2              1.207e-40   1.207e-40   -39.918   -39.918     0.000     28.58
O(0)          4.770e-13
   O2              2.385e-13   2.386e-13   -12.622   -12.622     0.000     30.31

------------------------------Saturation indices-------------------------------

	Phase               SI   log IAP   log K(298 K,  65 atm)

	CH4(g)         -119.66   -122.44   -2.78  CH4
	CO2(g)            1.58      0.14   -1.44  CO2	 Pressure  64.9 atm, phi 0.655.
	H2(g)           -36.82    -39.92   -3.10  H2
	H2O(g)           -1.49     -0.01    1.48  H2O	 Pressure   0.1 atm, phi 0.227.
	O2(g)            -9.69    -12.62   -2.93  O2


Reaction step 11.

Using solution 1.	
Using gas phase 1.	
Using reaction 1.	

Reaction 1.	

	  1.350e+00 moles of the following reaction have been added:

	                 Relative
	Reactant            moles

	CO2                  1.00000

	                 Relative
	Element             moles
	C                    1.00000
	O                    2.00000

-----------------------------------Gas phase-----------------------------------

Total pressure: 65.05      atmospheres          (Peng-Robinson calculation)
    Gas volume:   1.00e+00 liters
  Molar volume:   7.40e-02 liters/mole
   P * Vm / RT:  0.19683  (Compressibility Factor Z) 

                                                        Moles in gas
                                            ----------------------------------
Component         log P           P    phi     Initial       Final       Delta

CO2(g)             1.81   6.489e+01  0.654   1.212e+01   1.347e+01   1.353e+00
H2O(g)            -0.80   1.587e-01  0.203   2.647e-02   3.295e-02   6.474e-03

-----------------------------Solution composition------------------------------

	Elements           Molality       Moles

	C                 1.376e+00   1.376e+00

----------------------------Description of solution----------------------------

                                       pH  =   3.099      Charge balance
                                       pe  =  15.267      Adjusted to redox equilibrium
       Specific Conductance (uS/cm, 25 oC) = 317
                          Density (g/cm3)  =   1.02441
                        Activity of water  =   0.977
                           Ionic strength  =   8.214e-04
                       Mass of water (kg)  =   9.994e-01
                 Total alkalinity (eq/kg)  =   2.216e-10
                       Total CO2 (mol/kg)  =   1.376e+00
                      Temperature (deg C)  =  25.00
                           Pressure (atm)  = 65.05
                  Electrical balance (eq)  =  -2.214e-10
 Percent error, 100*(Cat-|An|)/(Cat+|An|)  =  -0.00
                               Iterations  =  48
                                  Total H  = 1.109465e+02
                                  Total O  = 5.822453e+01

----------------------------Distribution of species----------------------------

                                               Log       Log       Log    mole V
   Species          Molality    Activity  Molality  Activity     Gamma   cm3/mol

   H+              8.214e-04   7.964e-04    -3.085    -3.099    -0.013      0.00
   OH-             1.344e-11   1.301e-11   -10.872   -10.886    -0.014     -3.85
   H2O             5.551e+01   9.766e-01     1.744    -0.010     0.000     18.02
C(-4)         0.000e+00
   CH4             0.000e+00   0.000e+00  -122.424  -122.424     0.000     32.22
C(4)          1.376e+00
   CO2             1.376e+00   1.376e+00     0.139     0.139     0.000     25.61
   HCO3-           8.214e-04   7.956e-04    -3.085    -3.099    -0.014     24.79
   CO3-2           5.733e-11   5.045e-11   -10.242   -10.297    -0.055     -3.52
H(0)          2.433e-40
   H2              1.217e-40   1.217e-40   -39.915   -39.915     0.000     28.58
O(0)          4.692e-13
   O2              2.346e-13   2.346e-13   -12.630   -12.630     0.000     30.31

------------------------------Saturation indices-------------------------------

	Phase               SI   log IAP   log K(298 K,  65 atm)

	CH4(g)         -119.65   -122.42   -2.78  CH4
	CO2(g)            1.57      0.14   -1.44  CO2	 Pressure  64.9 atm, phi 0.654.
	H2(g)           -36.81    -39.91   -3.10  H2
	H2O(g)           -1.49     -0.01    1.48  H2O	 Pressure   0.2 atm, phi 0.203.
	O2(g)            -9.70    -12.63   -2.93  O2


Reaction step 12.

Using solution 1.	
Using gas phase 1.	
Using reaction 1.	

Reaction 1.	

	  1.350e+00 moles of the following reaction have been added:

	                 Relative
	Reactant            moles

	CO2                  1.00000

	                 Relative
	Element             moles
	C                    1.00000
	O                    2.00000

-----------------------------------Gas phase-----------------------------------

Total pressure: 65.28      atmospheres          (Peng-Robinson calculation)
    Gas volume:   1.00e+00 liters
  Molar volume:   6.73e-02 liters/mole
   P * Vm / RT:  0.17949  (Compressibility Factor Z) 

                                                        Moles in gas
                                            ----------------------------------
Component         log P           P    phi     Initial       Final       Delta

CO2(g)             1.81   6.510e+01  0.652   1.347e+01   1.483e+01   1.351e+00
H2O(g)            -0.75   1.776e-01  0.181   3.295e-02   4.044e-02   7.497e-03

-----------------------------Solution composition------------------------------

	Elements           Molality       Moles

	C                 1.376e+00   1.375e+00

----------------------------Description of solution----------------------------

                                       pH  =   3.099      Charge balance
                                       pe  =  15.273      Adjusted to redox equilibrium
       Specific Conductance (uS/cm, 25 oC) = 317
                          Density (g/cm3)  =   1.02441
                        Activity of water  =   0.977
                           Ionic strength  =   8.214e-04
                       Mass of water (kg)  =   9.993e-01
                 Total alkalinity (eq/kg)  =   2.217e-10
                       Total CO2 (mol/kg)  =   1.376e+00
                      Temperature (deg C)  =  25.00
                           Pressure (atm)  = 65.28
                  Electrical balance (eq)  =  -2.215e-10
 Percent error, 100*(Cat-|An|)/(Cat+|An|)  =  -0.00
                               Iterations  =  52
                                  Total H  = 1.109315e+02
                                  Total O  = 5.821574e+01

----------------------------Distribution of species----------------------------

                                               Log       Log       Log    mole V
   Species          Molality    Activity  Molality  Activity     Gamma   cm3/mol

   H+              8.214e-04   7.964e-04    -3.085    -3.099    -0.013      0.00
   OH-             1.345e-11   1.302e-11   -10.871   -10.885    -0.014     -3.85
   H2O             5.551e+01   9.766e-01     1.744    -0.010     0.000     18.02
C(-4)         0.000e+00
   CH4             0.000e+00   0.000e+00  -122.469  -122.469     0.000     32.22
C(4)          1.376e+00
   CO2             1.375e+00   1.375e+00     0.138     0.138     0.000     25.61
   HCO3-           8.214e-04   7.956e-04    -3.085    -3.099    -0.014     24.79
   CO3-2           5.734e-11   5.047e-11   -10.242   -10.297    -0.055     -3.52
H(0)          2.371e-40
   H2              1.186e-40   1.186e-40   -39.926   -39.926     0.000     28.58
O(0)          4.938e-13
   O2              2.469e-13   2.470e-13   -12.607   -12.607     0.000     30.31

------------------------------Saturation indices-------------------------------

	Phase               SI   log IAP   log K(298 K,  65 atm)

	CH4(g)         -119.69   -122.47   -2.78  CH4
	CO2(g)            1.57      0.14   -1.44  CO2	 Pressure  65.1 atm, phi 0.652.
	H2(g)           -36.82    -39.93   -3.10  H2
	H2O(g)           -1.49     -0.01    1.48  H2O	 Pressure   0.2 atm, phi 0.181.
	O2(g)            -9.67    -12.61   -2.93  O2


Reaction step 13.

Using solution 1.	
Using gas phase 1.	
Using reaction 1.	

Reaction 1.	

	  1.350e+00 moles of the following reaction have been added:

	                 Relative
	Reactant            moles

	CO2                  1.00000

	                 Relative
	Element             moles
	C                    1.00000
	O                    2.00000

-----------------------------------Gas phase-----------------------------------

Total pressure: 75.42      atmospheres          (Peng-Robinson calculation)
    Gas volume:   1.00e+00 liters
  Molar volume:   6.17e-02 liters/mole
   P * Vm / RT:  0.19027  (Compressibility Factor Z) 

                                                        Moles in gas
                                            ----------------------------------
Component         log P           P    phi     Initial       Final       Delta

CO2(g)             1.88   7.520e+01  0.580   1.483e+01   1.615e+01   1.329e+00
H2O(g)            -0.65   2.252e-01  0.144   4.044e-02   4.837e-02   7.926e-03

-----------------------------Solution composition------------------------------

	Elements           Molality       Moles

	C                 1.398e+00   1.396e+00

----------------------------Description of solution----------------------------

                                       pH  =   3.094      Charge balance
                                       pe  =  15.275      Adjusted to redox equilibrium
       Specific Conductance (uS/cm, 25 oC) = 321
                          Density (g/cm3)  =   1.02504
                        Activity of water  =   0.976
                           Ionic strength  =   8.311e-04
                       Mass of water (kg)  =   9.991e-01
                 Total alkalinity (eq/kg)  =   2.216e-10
                       Total CO2 (mol/kg)  =   1.398e+00
                      Temperature (deg C)  =  25.00
                           Pressure (atm)  = 75.42
                  Electrical balance (eq)  =  -2.214e-10
 Percent error, 100*(Cat-|An|)/(Cat+|An|)  =  -0.00
                               Iterations  =  42
                                  Total H  = 1.109157e+02
                                  Total O  = 5.825069e+01

----------------------------Distribution of species----------------------------

                                               Log       Log       Log    mole V
   Species          Molality    Activity  Molality  Activity     Gamma   cm3/mol

   H+              8.311e-04   8.057e-04    -3.080    -3.094    -0.013      0.00
   OH-             1.341e-11   1.298e-11   -10.873   -10.887    -0.014     -3.81
   H2O             5.551e+01   9.762e-01     1.744    -0.010     0.000     18.01
C(-4)         0.000e+00
   CH4             0.000e+00   0.000e+00  -122.449  -122.449     0.000     32.22
C(4)          1.398e+00
   CO2             1.397e+00   1.397e+00     0.145     0.145     0.000     25.74
   HCO3-           8.311e-04   8.049e-04    -3.080    -3.094    -0.014     24.82
   CO3-2           5.805e-11   5.106e-11   -10.236   -10.292    -0.056     -3.45
H(0)          2.370e-40
   H2              1.185e-40   1.185e-40   -39.926   -39.926     0.000     28.57
O(0)          4.836e-13
   O2              2.418e-13   2.418e-13   -12.617   -12.616     0.000     30.29

------------------------------Saturation indices-------------------------------

	Phase               SI   log IAP   log K(298 K,  75 atm)

	CH4(g)         -119.68   -122.45   -2.77  CH4
	CO2(g)            1.58      0.15   -1.43  CO2	 Pressure  75.2 atm, phi 0.580.
	H2(g)           -36.83    -39.93   -3.10  H2
	H2O(g)           -1.49     -0.01    1.48  H2O	 Pressure   0.2 atm, phi 0.144.
	O2(g)            -9.68    -12.62   -2.94  O2


Reaction step 14.

Using solution 1.	
Using gas phase 1.	
Using reaction 1.	

Reaction 1.	

	  1.350e+00 moles of the following reaction have been added:

	                 Relative
	Reactant            moles

	CO2                  1.00000

	                 Relative
	Element             moles
	C                    1.00000
	O                    2.00000

-----------------------------------Gas phase-----------------------------------

Total pressure: 92.91      atmospheres          (Peng-Robinson calculation)
    Gas volume:   1.00e+00 liters
  Molar volume:   5.71e-02 liters/mole
   P * Vm / RT:  0.21665  (Compressibility Factor Z) 

                                                        Moles in gas
                                            ----------------------------------
Component         log P           P    phi     Initial       Final       Delta

CO2(g)             1.97   9.261e+01  0.491   1.615e+01   1.747e+01   1.318e+00
H2O(g)            -0.52   3.016e-01  0.109   4.837e-02   5.689e-02   8.520e-03

-----------------------------Solution composition------------------------------

	Elements           Molality       Moles

	C                 1.430e+00   1.429e+00

----------------------------Description of solution----------------------------

                                       pH  =   3.086      Charge balance
                                       pe  =  15.278      Adjusted to redox equilibrium
       Specific Conductance (uS/cm, 25 oC) = 327
                          Density (g/cm3)  =   1.02605
                        Activity of water  =   0.976
                           Ionic strength  =   8.467e-04
                       Mass of water (kg)  =   9.990e-01
                 Total alkalinity (eq/kg)  =   2.233e-10
                       Total CO2 (mol/kg)  =   1.430e+00
                      Temperature (deg C)  =  25.00
                           Pressure (atm)  = 92.91
                  Electrical balance (eq)  =  -2.231e-10
 Percent error, 100*(Cat-|An|)/(Cat+|An|)  =  -0.00
                               Iterations  =  53
                                  Total H  = 1.108987e+02
                                  Total O  = 5.830700e+01

----------------------------Distribution of species----------------------------

                                               Log       Log       Log    mole V
   Species          Molality    Activity  Molality  Activity     Gamma   cm3/mol

   H+              8.467e-04   8.206e-04    -3.072    -3.086    -0.014      0.00
   OH-             1.336e-11   1.293e-11   -10.874   -10.888    -0.014     -3.75
   H2O             5.551e+01   9.757e-01     1.744    -0.011     0.000     18.00
C(-4)         0.000e+00
   CH4             0.000e+00   0.000e+00  -122.407  -122.407     0.000     32.22
C(4)          1.430e+00
   CO2             1.429e+00   1.430e+00     0.155     0.155     0.000     25.97
   HCO3-           8.467e-04   8.198e-04    -3.072    -3.086    -0.014     24.88
   CO3-2           5.928e-11   5.209e-11   -10.227   -10.283    -0.056     -3.32
H(0)          2.382e-40
   H2              1.191e-40   1.191e-40   -39.924   -39.924     0.000     28.56
O(0)          4.608e-13
   O2              2.304e-13   2.305e-13   -12.637   -12.637     0.000     30.27

------------------------------Saturation indices-------------------------------

	Phase               SI   log IAP   log K(298 K,  93 atm)

	CH4(g)         -119.66   -122.41   -2.75  CH4
	CO2(g)            1.58      0.16   -1.43  CO2	 Pressure  92.6 atm, phi 0.491.
	H2(g)           -36.82    -39.92   -3.10  H2
	H2O(g)           -1.48     -0.01    1.47  H2O	 Pressure   0.3 atm, phi 0.109.
	O2(g)            -9.69    -12.64   -2.95  O2


Reaction step 15.

Using solution 1.	
Using gas phase 1.	
Using reaction 1.	

Reaction 1.	

	  1.350e+00 moles of the following reaction have been added:

	                 Relative
	Reactant            moles

	CO2                  1.00000

	                 Relative
	Element             moles
	C                    1.00000
	O                    2.00000

-----------------------------------Gas phase-----------------------------------

Total pressure: 120.14      atmospheres          (Peng-Robinson calculation)
    Gas volume:   1.00e+00 liters
  Molar volume:   5.31e-02 liters/mole
   P * Vm / RT:  0.26059  (Compressibility Factor Z) 

                                                        Moles in gas
                                            ----------------------------------
Component         log P           P    phi     Initial       Final       Delta

CO2(g)             2.08   1.197e+02  0.404   1.747e+01   1.878e+01   1.306e+00
H2O(g)            -0.38   4.197e-01  0.080   5.689e-02   6.583e-02   8.939e-03

-----------------------------Solution composition------------------------------

	Elements           Molality       Moles

	C                 1.475e+00   1.473e+00

----------------------------Description of solution----------------------------

                                       pH  =   3.075      Charge balance
                                       pe  =  15.291      Adjusted to redox equilibrium
       Specific Conductance (uS/cm, 25 oC) = 336
                          Density (g/cm3)  =   1.02748
                        Activity of water  =   0.975
                           Ionic strength  =   8.695e-04
                       Mass of water (kg)  =   9.988e-01
                 Total alkalinity (eq/kg)  =   2.236e-10
                       Total CO2 (mol/kg)  =   1.475e+00
                      Temperature (deg C)  =  25.00
                           Pressure (atm)  = 120.14
                  Electrical balance (eq)  =  -2.233e-10
 Percent error, 100*(Cat-|An|)/(Cat+|An|)  =  -0.00
                               Iterations  =  72
                                  Total H  = 1.108808e+02
                                  Total O  = 5.838639e+01

----------------------------Distribution of species----------------------------

                                               Log       Log       Log    mole V
   Species          Molality    Activity  Molality  Activity     Gamma   cm3/mol

   H+              8.695e-04   8.424e-04    -3.061    -3.075    -0.014      0.00
   OH-             1.332e-11   1.289e-11   -10.875   -10.890    -0.014     -3.65
   H2O             5.551e+01   9.749e-01     1.744    -0.011     0.000     17.97
C(-4)         0.000e+00
   CH4             0.000e+00   0.000e+00  -122.431  -122.431     0.000     32.22
C(4)          1.475e+00
   CO2             1.474e+00   1.474e+00     0.168     0.169     0.000     26.32
   HCO3-           8.695e-04   8.415e-04    -3.061    -3.075    -0.014     24.96
   CO3-2           6.123e-11   5.372e-11   -10.213   -10.270    -0.057     -3.13
H(0)          2.285e-40
   H2              1.142e-40   1.143e-40   -39.942   -39.942     0.000     28.55
O(0)          4.726e-13
   O2              2.363e-13   2.363e-13   -12.627   -12.626     0.000     30.23

------------------------------Saturation indices-------------------------------

	Phase               SI   log IAP   log K(298 K, 120 atm)

	CH4(g)         -119.71   -122.43   -2.72  CH4
	CO2(g)            1.58      0.17   -1.42  CO2	 Pressure 119.7 atm, phi 0.404.
	H2(g)           -36.84    -39.94   -3.10  H2
	H2O(g)           -1.48     -0.01    1.46  H2O	 Pressure   0.4 atm, phi 0.080.
	O2(g)            -9.66    -12.63   -2.97  O2


Reaction step 16.

Using solution 1.	
Using gas phase 1.	
Using reaction 1.	

Reaction 1.	

	  1.350e+00 moles of the following reaction have been added:

	                 Relative
	Reactant            moles

	CO2                  1.00000

	                 Relative
	Element             moles
	C                    1.00000
	O                    2.00000

-----------------------------------Gas phase-----------------------------------

Total pressure: 160.10      atmospheres          (Peng-Robinson calculation)
    Gas volume:   1.00e+00 liters
  Molar volume:   4.96e-02 liters/mole
   P * Vm / RT:  0.32481  (Compressibility Factor Z) 

                                                        Moles in gas
                                            ----------------------------------
Component         log P           P    phi     Initial       Final       Delta

CO2(g)             2.20   1.595e+02  0.330   1.878e+01   2.007e+01   1.294e+00
H2O(g)            -0.22   5.957e-01  0.058   6.583e-02   7.496e-02   9.128e-03

-----------------------------Solution composition------------------------------

	Elements           Molality       Moles

	C                 1.531e+00   1.529e+00

----------------------------Description of solution----------------------------

                                       pH  =   3.059      Charge balance
                                       pe  =  15.308      Adjusted to redox equilibrium
       Specific Conductance (uS/cm, 25 oC) = 348
                          Density (g/cm3)  =   1.02939
                        Activity of water  =   0.974
                           Ionic strength  =   9.011e-04
                       Mass of water (kg)  =   9.986e-01
                 Total alkalinity (eq/kg)  =   2.238e-10
                       Total CO2 (mol/kg)  =   1.531e+00
                      Temperature (deg C)  =  25.00
                           Pressure (atm)  = 160.10
                  Electrical balance (eq)  =  -2.235e-10
 Percent error, 100*(Cat-|An|)/(Cat+|An|)  =  -0.00
                               Iterations  =  94
                                  Total H  = 1.108625e+02
                                  Total O  = 5.848965e+01

----------------------------Distribution of species----------------------------

                                               Log       Log       Log    mole V
   Species          Molality    Activity  Molality  Activity     Gamma   cm3/mol

   H+              9.011e-04   8.726e-04    -3.045    -3.059    -0.014      0.00
   OH-             1.330e-11   1.286e-11   -10.876   -10.891    -0.015     -3.52
   H2O             5.551e+01   9.740e-01     1.744    -0.011     0.000     17.94
C(-4)         0.000e+00
   CH4             0.000e+00   0.000e+00  -122.452  -122.452     0.000     32.22
C(4)          1.531e+00
   CO2             1.530e+00   1.531e+00     0.185     0.185     0.000     26.82
   HCO3-           9.011e-04   8.716e-04    -3.045    -3.060    -0.014     25.08
   CO3-2           6.416e-11   5.618e-11   -10.193   -10.250    -0.058     -2.86
H(0)          2.168e-40
   H2              1.084e-40   1.084e-40   -39.965   -39.965     0.000     28.53
O(0)          4.817e-13
   O2              2.409e-13   2.409e-13   -12.618   -12.618     0.000     30.17

------------------------------Saturation indices-------------------------------

	Phase               SI   log IAP   log K(298 K, 160 atm)

	CH4(g)         -119.77   -122.45   -2.68  CH4
	CO2(g)            1.59      0.18   -1.40  CO2	 Pressure 159.5 atm, phi 0.330.
	H2(g)           -36.86    -39.96   -3.10  H2
	H2O(g)           -1.46     -0.01    1.45  H2O	 Pressure   0.6 atm, phi 0.058.
	O2(g)            -9.62    -12.62   -2.99  O2


Reaction step 17.

WARNING: Numerical method failed, switching to numerical derivatives.
WARNING: Maximum iterations exceeded, 100

WARNING: Numerical method failed with this set of convergence parameters.

WARNING: Trying smaller step size, pe step size 10, 5 ... 

Using solution 1.	
Using gas phase 1.	
Using reaction 1.	

Reaction 1.	

	  1.350e+00 moles of the following reaction have been added:

	                 Relative
	Reactant            moles

	CO2                  1.00000

	                 Relative
	Element             moles
	C                    1.00000
	O                    2.00000

-----------------------------------Gas phase-----------------------------------

Total pressure: 216.67      atmospheres          (Peng-Robinson calculation)
    Gas volume:   1.00e+00 liters
  Molar volume:   4.66e-02 liters/mole
   P * Vm / RT:  0.41311  (Compressibility Factor Z) 

                                                        Moles in gas
                                            ----------------------------------
Component         log P           P    phi     Initial       Final       Delta

CO2(g)             2.33   2.158e+02  0.272   2.007e+01   2.135e+01   1.283e+00
H2O(g)            -0.07   8.488e-01  0.042   7.496e-02   8.398e-02   9.027e-03

-----------------------------Solution composition------------------------------

	Elements           Molality       Moles

	C                 1.599e+00   1.597e+00

----------------------------Description of solution----------------------------

                                       pH  =   3.039      Charge balance
                                       pe  =  15.517      Adjusted to redox equilibrium
       Specific Conductance (uS/cm, 25 oC) = 364
                          Density (g/cm3)  =   1.03183
                        Activity of water  =   0.973
                           Ionic strength  =   9.440e-04
                       Mass of water (kg)  =   9.985e-01
                 Total alkalinity (eq/kg)  =   2.238e-10
                       Total CO2 (mol/kg)  =   1.599e+00
                      Temperature (deg C)  =  25.00
                           Pressure (atm)  = 216.67
                  Electrical balance (eq)  =  -2.234e-10
 Percent error, 100*(Cat-|An|)/(Cat+|An|)  =  -0.00
                               Iterations  =   9
                                  Total H  = 1.108445e+02
                                  Total O  = 5.861544e+01

----------------------------Distribution of species----------------------------

                                               Log       Log       Log    mole V
   Species          Molality    Activity  Molality  Activity     Gamma   cm3/mol

   H+              9.440e-04   9.136e-04    -3.025    -3.039    -0.014      0.00
   OH-             1.332e-11   1.287e-11   -10.876   -10.890    -0.015     -3.33
   H2O             5.551e+01   9.728e-01     1.744    -0.012     0.000     17.90
C(-4)         0.000e+00
   CH4             0.000e+00   0.000e+00  -123.983  -123.983     0.000     32.22
C(4)          1.599e+00
   CO2             1.598e+00   1.598e+00     0.204     0.204     0.000     27.50
   HCO3-           9.440e-04   9.125e-04    -3.025    -3.040    -0.015     25.25
   CO3-2           6.849e-11   5.981e-11   -10.164   -10.223    -0.059     -2.48
H(0)          0.000e+00
   H2              0.000e+00   0.000e+00   -40.372   -40.372     0.000     28.51
O(0)          2.778e-12
   O2              1.389e-12   1.389e-12   -11.857   -11.857     0.000     30.10

------------------------------Saturation indices-------------------------------

	Phase               SI   log IAP   log K(298 K, 217 atm)

	CH4(g)         -121.36   -123.98   -2.63  CH4
	CO2(g)            1.59      0.20   -1.38  CO2	 Pressure 215.8 atm, phi 0.272.
	H2(g)           -37.27    -40.37   -3.10  H2
	H2O(g)           -1.45     -0.01    1.43  H2O	 Pressure   0.8 atm, phi 0.042.
	O2(g)            -8.83    -11.86   -3.03  O2


Reaction step 18.

Using solution 1.	
Using gas phase 1.	
Using reaction 1.	

Reaction 1.	

	  1.350e+00 moles of the following reaction have been added:

	                 Relative
	Reactant            moles

	CO2                  1.00000

	                 Relative
	Element             moles
	C                    1.00000
	O                    2.00000

-----------------------------------Gas phase-----------------------------------

Total pressure: 295.16      atmospheres          (Peng-Robinson calculation)
    Gas volume:   1.00e+00 liters
  Molar volume:   4.40e-02 liters/mole
   P * Vm / RT:  0.53097  (Compressibility Factor Z) 

                                                        Moles in gas
                                            ----------------------------------
Component         log P           P    phi     Initial       Final       Delta

CO2(g)             2.47   2.940e+02  0.231   2.135e+01   2.263e+01   1.274e+00
H2O(g)             0.08   1.202e+00  0.031   8.398e-02   9.256e-02   8.579e-03

-----------------------------Solution composition------------------------------

	Elements           Molality       Moles

	C                 1.675e+00   1.672e+00

----------------------------Description of solution----------------------------

                                       pH  =   3.014      Charge balance
                                       pe  =  15.581      Adjusted to redox equilibrium
       Specific Conductance (uS/cm, 25 oC) = 386
                          Density (g/cm3)  =   1.03482
                        Activity of water  =   0.972
                           Ionic strength  =   1.002e-03
                       Mass of water (kg)  =   9.983e-01
                 Total alkalinity (eq/kg)  =   2.236e-10
                       Total CO2 (mol/kg)  =   1.675e+00
                      Temperature (deg C)  =  25.00
                           Pressure (atm)  = 295.16
                  Electrical balance (eq)  =  -2.232e-10
 Percent error, 100*(Cat-|An|)/(Cat+|An|)  =  -0.00
                               Iterations  =  23
                                  Total H  = 1.108273e+02
                                  Total O  = 5.875804e+01

----------------------------Distribution of species----------------------------

                                               Log       Log       Log    mole V
   Species          Molality    Activity  Molality  Activity     Gamma   cm3/mol

   H+              1.002e-03   9.687e-04    -2.999    -3.014    -0.015      0.00
   OH-             1.339e-11   1.293e-11   -10.873   -10.889    -0.015     -3.08
   H2O             5.551e+01   9.715e-01     1.744    -0.013     0.000     17.84
C(-4)         0.000e+00
   CH4             0.000e+00   0.000e+00  -124.325  -124.325     0.000     32.22
C(4)          1.675e+00
   CO2             1.674e+00   1.674e+00     0.224     0.224     0.000     28.40
   HCO3-           1.002e-03   9.675e-04    -2.999    -3.014    -0.015     25.47
   CO3-2           7.485e-11   6.515e-11   -10.126   -10.186    -0.060     -1.97
H(0)          0.000e+00
   H2              0.000e+00   0.000e+00   -40.489   -40.489     0.000     28.48
O(0)          4.041e-12
   O2              2.020e-12   2.021e-12   -11.695   -11.694     0.000     30.00

------------------------------Saturation indices-------------------------------

	Phase               SI   log IAP   log K(298 K, 295 atm)

	CH4(g)         -121.77   -124.32   -2.55  CH4
	CO2(g)            1.58      0.22   -1.36  CO2	 Pressure 294.0 atm, phi 0.231.
	H2(g)           -37.39    -40.49   -3.10  H2
	H2O(g)           -1.42     -0.01    1.41  H2O	 Pressure   1.2 atm, phi 0.031.
	O2(g)            -8.62    -11.69   -3.08  O2


Reaction step 19.

Using solution 1.	
Using gas phase 1.	
Using reaction 1.	

Reaction 1.	

	  1.350e+00 moles of the following reaction have been added:

	                 Relative
	Reactant            moles

	CO2                  1.00000

	                 Relative
	Element             moles
	C                    1.00000
	O                    2.00000

-----------------------------------Gas phase-----------------------------------

Total pressure: 403.36      atmospheres          (Peng-Robinson calculation)
    Gas volume:   1.00e+00 liters
  Molar volume:   4.17e-02 liters/mole
   P * Vm / RT:  0.68688  (Compressibility Factor Z) 

                                                        Moles in gas
                                            ----------------------------------
Component         log P           P    phi     Initial       Final       Delta

CO2(g)             2.60   4.017e+02  0.205   2.263e+01   2.390e+01   1.274e+00
H2O(g)             0.23   1.685e+00  0.024   9.256e-02   1.003e-01   7.717e-03

-----------------------------Solution composition------------------------------

	Elements           Molality       Moles

	C                 1.752e+00   1.749e+00

----------------------------Description of solution----------------------------

                                       pH  =   2.982      Charge balance
                                       pe  =  16.383      Adjusted to redox equilibrium
       Specific Conductance (uS/cm, 25 oC) = 416
                          Density (g/cm3)  =   1.03837
                        Activity of water  =   0.970
                           Ionic strength  =   1.080e-03
                       Mass of water (kg)  =   9.982e-01
                 Total alkalinity (eq/kg)  =   2.236e-10
                       Total CO2 (mol/kg)  =   1.752e+00
                      Temperature (deg C)  =  25.00
                           Pressure (atm)  = 403.36
                  Electrical balance (eq)  =  -2.232e-10
 Percent error, 100*(Cat-|An|)/(Cat+|An|)  =  -0.00
                               Iterations  =  24
                                  Total H  = 1.108119e+02
                                  Total O  = 5.890310e+01

----------------------------Distribution of species----------------------------

                                               Log       Log       Log    mole V
   Species          Molality    Activity  Molality  Activity     Gamma   cm3/mol

   H+              1.080e-03   1.043e-03    -2.967    -2.982    -0.015      0.00
   OH-             1.354e-11   1.306e-11   -10.868   -10.884    -0.016     -2.75
   H2O             5.551e+01   9.702e-01     1.744    -0.013     0.000     17.76
C(-4)         0.000e+00
   CH4             0.000e+00   0.000e+00  -130.522  -130.522     0.000     32.22
C(4)          1.752e+00
   CO2             1.751e+00   1.751e+00     0.243     0.243     0.000     29.56
   HCO3-           1.080e-03   1.042e-03    -2.967    -2.982    -0.016     25.76
   CO3-2           8.436e-11   7.311e-11   -10.074   -10.136    -0.062     -1.31
H(0)          0.000e+00
   H2              0.000e+00   0.000e+00   -42.082   -42.082     0.000     28.44
O(0)          4.917e-09
   O2              2.459e-09   2.459e-09    -8.609    -8.609     0.000     29.87

------------------------------Saturation indices-------------------------------

	Phase               SI   log IAP   log K(298 K, 403 atm)

	CH4(g)         -128.07   -130.52   -2.45  CH4
	CO2(g)            1.57      0.24   -1.32  CO2	 Pressure 401.7 atm, phi 0.205.
	H2(g)           -38.98    -42.08   -3.10  H2
	H2O(g)           -1.39     -0.01    1.38  H2O	 Pressure   1.7 atm, phi 0.024.
	O2(g)            -5.46     -8.61   -3.15  O2


Reaction step 20.

Using solution 1.	
Using gas phase 1.	
Using reaction 1.	

Reaction 1.	

	  1.350e+00 moles of the following reaction have been added:

	                 Relative
	Reactant            moles

	CO2                  1.00000

	                 Relative
	Element             moles
	C                    1.00000
	O                    2.00000

-----------------------------------Gas phase-----------------------------------

Total pressure: 554.10      atmospheres          (Peng-Robinson calculation)
    Gas volume:   1.00e+00 liters
  Molar volume:   3.95e-02 liters/mole
   P * Vm / RT:  0.89528  (Compressibility Factor Z) 

                                                        Moles in gas
                                            ----------------------------------
Component         log P           P    phi     Initial       Final       Delta

CO2(g)             2.74   5.518e+02  0.191   2.390e+01   2.519e+01   1.289e+00
H2O(g)             0.37   2.335e+00  0.019   1.003e-01   1.066e-01   6.342e-03

-----------------------------Solution composition------------------------------

	Elements           Molality       Moles

	C                 1.813e+00   1.810e+00

----------------------------Description of solution----------------------------

                                       pH  =   2.941      Charge balance
                                       pe  =  16.420      Adjusted to redox equilibrium
       Specific Conductance (uS/cm, 25 oC) = 458
                          Density (g/cm3)  =   1.04254
                        Activity of water  =   0.969
                           Ionic strength  =   1.188e-03
                       Mass of water (kg)  =   9.981e-01
                 Total alkalinity (eq/kg)  =   2.233e-10
                       Total CO2 (mol/kg)  =   1.813e+00
                      Temperature (deg C)  =  25.00
                           Pressure (atm)  = 554.10
                  Electrical balance (eq)  =  -2.229e-10
 Percent error, 100*(Cat-|An|)/(Cat+|An|)  =  -0.00
                               Iterations  =  33
                                  Total H  = 1.107992e+02
                                  Total O  = 5.901915e+01

----------------------------Distribution of species----------------------------

                                               Log       Log       Log    mole V
   Species          Molality    Activity  Molality  Activity     Gamma   cm3/mol

   H+              1.188e-03   1.147e-03    -2.925    -2.941    -0.016      0.00
   OH-             1.382e-11   1.331e-11   -10.859   -10.876    -0.016     -2.33
   H2O             5.551e+01   9.692e-01     1.744    -0.014     0.000     17.65
C(-4)         0.000e+00
   CH4             0.000e+00   0.000e+00  -130.565  -130.565     0.000     32.22
C(4)          1.813e+00
   CO2             1.812e+00   1.813e+00     0.258     0.258     0.000     31.05
   HCO3-           1.188e-03   1.145e-03    -2.925    -2.941    -0.016     26.14
   CO3-2           9.915e-11   8.545e-11   -10.004   -10.068    -0.065     -0.46
H(0)          0.000e+00
   H2              0.000e+00   0.000e+00   -42.150   -42.150     0.000     28.38
O(0)          4.918e-09
   O2              2.459e-09   2.460e-09    -8.609    -8.609     0.000     29.70

------------------------------Saturation indices-------------------------------

	Phase               SI   log IAP   log K(298 K, 554 atm)

	CH4(g)         -128.25   -130.56   -2.32  CH4
	CO2(g)            1.54      0.26   -1.28  CO2	 Pressure 551.8 atm, phi 0.191.
	H2(g)           -39.05    -42.15   -3.10  H2
	H2O(g)           -1.34     -0.01    1.33  H2O	 Pressure   2.3 atm, phi 0.019.
	O2(g)            -5.37     -8.61   -3.24  O2


------------------
End of simulation.
------------------

------------------------------------
Reading input data for simulation 2.
------------------------------------

	USE solution 1
	GAS_PHASE 1
	 fixed_volume
	 CH4(g) 0
	 H2O(g) 0
	REACTION 1
	 CH4 1
	 20 in 20
	 USER_GRAPH
	 -headings Vm CH4
	END
-----------------------------------------
Beginning of batch-reaction calculations.
-----------------------------------------

Reaction step 1.

Using solution 1.	
Using gas phase 1.	
Using reaction 1.	

Reaction 1.	

	  1.000e+00 moles of the following reaction have been added:

	                 Relative
	Reactant            moles

	CH4                  1.00000

	                 Relative
	Element             moles
	C                    1.00000
	H                    4.00000

-----------------------------------Gas phase-----------------------------------

Total pressure: 22.60      atmospheres          (Peng-Robinson calculation)
    Gas volume:   1.00e+00 liters
  Molar volume:   1.03e+00 liters/mole
   P * Vm / RT:  0.95082  (Compressibility Factor Z) 

                                                        Moles in gas
                                            ----------------------------------
Component         log P           P    phi     Initial       Final       Delta

CH4(g)             1.35   2.257e+01  0.951   0.000e+00   9.701e-01   9.701e-01
H2O(g)            -1.46   3.451e-02  0.925   0.000e+00   1.483e-03   1.483e-03

-----------------------------Solution composition------------------------------

	Elements           Molality       Moles

	C                 2.995e-02   2.995e-02

----------------------------Description of solution----------------------------

                                       pH  =   6.980      Charge balance
                                       pe  =  -4.839      Adjusted to redox equilibrium
[...]

------------------------------Saturation indices-------------------------------

	Phase               SI   log IAP   log K(298 K,  38 atm)

	H2(g)            -6.03     -9.13   -3.10  H2
	H2O(g)           -1.50     -0.01    1.49  H2O	 Pressure   0.2 atm, phi 0.127.
	H2S(g)            1.25     -6.76   -8.01  H2S	 Pressure  38.0 atm, phi 0.463.
	O2(g)           -71.26    -74.17   -2.92  O2
	Sulfur            1.26      6.13    4.87  S


Reaction step 16.

Using solution 1.	
Using gas phase 1.	
Using reaction 1.	

Reaction 1.	

	  1.500e+00 moles of the following reaction have been added:

	                 Relative
	Reactant            moles

	H2S                  1.00000

	                 Relative
	Element             moles
	H                    2.00000
	S                    1.00000

-----------------------------------Gas phase-----------------------------------

Total pressure: 38.20      atmospheres          (Peng-Robinson calculation)
    Gas volume:   1.00e+00 liters
  Molar volume:   4.40e-02 liters/mole
   P * Vm / RT:  0.06872  (Compressibility Factor Z) 

                                                        Moles in gas
                                            ----------------------------------
Component         log P           P    phi     Initial       Final       Delta

H2O(g)            -0.56   2.767e-01  0.114   1.372e-01   1.646e-01   2.741e-02
H2S(g)             1.58   3.792e+01  0.455   2.102e+01   2.255e+01   1.530e+00

-----------------------------Solution composition------------------------------

	Elements           Molality       Moles

	S                 1.451e+00   1.446e+00

----------------------------Description of solution----------------------------

                                       pH  =   3.384      Charge balance
                                       pe  =  -0.403      Adjusted to redox equilibrium
       Specific Conductance (uS/cm, 25 oC) = 172
                          Density (g/cm3)  =   0.99464
                        Activity of water  =   0.975
                           Ionic strength  =   4.221e-04
                       Mass of water (kg)  =   9.970e-01
                 Total alkalinity (eq/kg)  =  -1.509e-10
                    Total carbon (mol/kg)  =   0.000e+00
                       Total CO2 (mol/kg)  =   0.000e+00
                      Temperature (deg C)  =  25.00
                           Pressure (atm)  = 38.20
                  Electrical balance (eq)  =  -2.175e-10
 Percent error, 100*(Cat-|An|)/(Cat+|An|)  =  -0.00
                               Iterations  =  85
                                  Total H  = 1.135758e+02
                                  Total O  = 5.534163e+01

----------------------------Distribution of species----------------------------

                                               Log       Log       Log    mole V
   Species          Molality    Activity  Molality  Activity     Gamma   cm3/mol

   H+              4.221e-04   4.126e-04    -3.375    -3.384    -0.010      0.00
   OH-             2.508e-11   2.450e-11   -10.601   -10.611    -0.010     -3.95
   H2O             5.551e+01   9.753e-01     1.744    -0.011     0.000     18.04
H(0)          1.476e-09
   H2              7.382e-10   7.383e-10    -9.132    -9.132     0.000     28.59
O(0)          0.000e+00
   O2              0.000e+00   0.000e+00   -74.172   -74.172     0.000     30.35
S(-2)         1.451e+00
   H2S             1.450e+00   1.450e+00     0.161     0.161     0.000     37.10
   HS-             4.221e-04   4.122e-04    -3.375    -3.385    -0.010     20.61
   S-2             1.325e-13   1.207e-13   -12.878   -12.918    -0.040     (0)  
S(6)          1.845e-10
   SO4-2           1.781e-10   1.622e-10    -9.749    -9.790    -0.040     13.52
   HSO4-           6.447e-12   6.298e-12   -11.191   -11.201    -0.010     35.07

------------------------------Saturation indices-------------------------------

	Phase               SI   log IAP   log K(298 K,  38 atm)

	H2(g)            -6.03     -9.13   -3.10  H2
	H2O(g)           -1.50     -0.01    1.49  H2O	 Pressure   0.3 atm, phi 0.114.
	H2S(g)            1.24     -6.77   -8.01  H2S	 Pressure  37.9 atm, phi 0.455.
	O2(g)           -71.26    -74.17   -2.92  O2
	Sulfur            1.26      6.12    4.87  S


Reaction step 17.

Using solution 1.	
Using gas phase 1.	
Using reaction 1.	

Reaction 1.	

	  1.500e+00 moles of the following reaction have been added:

	                 Relative
	Reactant            moles

	H2S                  1.00000

	                 Relative
	Element             moles
	H                    2.00000
	S                    1.00000

-----------------------------------Gas phase-----------------------------------

Total pressure: 38.19      atmospheres          (Peng-Robinson calculation)
    Gas volume:   1.00e+00 liters
  Molar volume:   4.12e-02 liters/mole
   P * Vm / RT:  0.06433  (Compressibility Factor Z) 

                                                        Moles in gas
                                            ----------------------------------
Component         log P           P    phi     Initial       Final       Delta

H2O(g)            -0.52   3.052e-01  0.103   1.646e-01   1.939e-01   2.929e-02
H2S(g)             1.58   3.788e+01  0.451   2.255e+01   2.407e+01   1.513e+00

-----------------------------Solution composition------------------------------

	Elements           Molality       Moles

	S                 1.438e+00   1.433e+00

----------------------------Description of solution----------------------------

                                       pH  =   3.386      Charge balance
                                       pe  =  -0.405      Adjusted to redox equilibrium
       Specific Conductance (uS/cm, 25 oC) = 171
                          Density (g/cm3)  =   0.99467
                        Activity of water  =   0.976
                           Ionic strength  =   4.202e-04
                       Mass of water (kg)  =   9.965e-01
                 Total alkalinity (eq/kg)  =  -1.508e-10
                    Total carbon (mol/kg)  =   0.000e+00
                       Total CO2 (mol/kg)  =   0.000e+00
                      Temperature (deg C)  =  25.00
                           Pressure (atm)  = 38.19
                  Electrical balance (eq)  =  -2.175e-10
 Percent error, 100*(Cat-|An|)/(Cat+|An|)  =  -0.00
                               Iterations  =  85
                                  Total H  = 1.134904e+02
                                  Total O  = 5.531234e+01

----------------------------Distribution of species----------------------------

                                               Log       Log       Log    mole V
   Species          Molality    Activity  Molality  Activity     Gamma   cm3/mol

   H+              4.202e-04   4.108e-04    -3.377    -3.386    -0.010      0.00
   OH-             2.520e-11   2.461e-11   -10.599   -10.609    -0.010     -3.95
   H2O             5.551e+01   9.755e-01     1.744    -0.011     0.000     18.04
H(0)          1.477e-09
   H2              7.383e-10   7.384e-10    -9.132    -9.132     0.000     28.59
O(0)          0.000e+00
   O2              0.000e+00   0.000e+00   -74.172   -74.172     0.000     30.35
S(-2)         1.438e+00
   H2S             1.437e+00   1.438e+00     0.158     0.158     0.000     37.10
   HS-             4.202e-04   4.104e-04    -3.377    -3.387    -0.010     20.61
   S-2             1.324e-13   1.207e-13   -12.878   -12.918    -0.040     (0)  
S(6)          1.846e-10
   SO4-2           1.781e-10   1.623e-10    -9.749    -9.790    -0.040     13.52
   HSO4-           6.422e-12   6.273e-12   -11.192   -11.202    -0.010     35.07

------------------------------Saturation indices-------------------------------

	Phase               SI   log IAP   log K(298 K,  38 atm)

	H2(g)            -6.03     -9.13   -3.10  H2
	H2O(g)           -1.50     -0.01    1.49  H2O	 Pressure   0.3 atm, phi 0.103.
	H2S(g)            1.23     -6.77   -8.01  H2S	 Pressure  37.9 atm, phi 0.451.
	O2(g)           -71.26    -74.17   -2.92  O2
	Sulfur            1.25      6.12    4.87  S


Reaction step 18.

WARNING: Numerical method failed, switching to numerical derivatives.
Using solution 1.	
Using gas phase 1.	
Using reaction 1.	

Reaction 1.	

	  1.500e+00 moles of the following reaction have been added:

	                 Relative
	Reactant            moles

	H2S                  1.00000

	                 Relative
	Element             moles
	H                    2.00000
	S                    1.00000

-----------------------------------Gas phase-----------------------------------

Total pressure: 170.52      atmospheres          (Peng-Robinson calculation)
    Gas volume:   1.00e+00 liters
  Molar volume:   3.88e-02 liters/mole
   P * Vm / RT:  0.27061  (Compressibility Factor Z) 

                                                        Moles in gas
                                            ----------------------------------
Component         log P           P    phi     Initial       Final       Delta

H2O(g)             0.15   1.400e+00  0.025   1.939e-01   2.114e-01   1.751e-02
H2S(g)             2.23   1.691e+02  0.125   2.407e+01   2.554e+01   1.477e+00

-----------------------------Solution composition------------------------------

	Elements           Molality       Moles

	S                 1.462e+00   1.456e+00

----------------------------Description of solution----------------------------

                                       pH  =   3.364      Charge balance
                                       pe  =  -0.407      Adjusted to redox equilibrium
       Specific Conductance (uS/cm, 25 oC) = 181
                          Density (g/cm3)  =   1.00049
                        Activity of water  =   0.975
                           Ionic strength  =   4.427e-04
                       Mass of water (kg)  =   9.962e-01
                 Total alkalinity (eq/kg)  =  -1.371e-10
                    Total carbon (mol/kg)  =   0.000e+00
                       Total CO2 (mol/kg)  =   0.000e+00
                      Temperature (deg C)  =  25.00
                           Pressure (atm)  = 170.52
                  Electrical balance (eq)  =  -2.168e-10
 Percent error, 100*(Cat-|An|)/(Cat+|An|)  =  -0.00
                               Iterations  = 126
                                  Total H  = 1.135021e+02
                                  Total O  = 5.529483e+01

----------------------------Distribution of species----------------------------

                                               Log       Log       Log    mole V
   Species          Molality    Activity  Molality  Activity     Gamma   cm3/mol

   H+              4.427e-04   4.326e-04    -3.354    -3.364    -0.010      0.00
   OH-             2.684e-11   2.620e-11   -10.571   -10.582    -0.010     -3.49
   H2O             5.551e+01   9.751e-01     1.744    -0.011     0.000     17.93
H(0)          1.419e-09
   H2              7.095e-10   7.096e-10    -9.149    -9.149     0.000     28.53
O(0)          0.000e+00
   O2              0.000e+00   0.000e+00   -74.258   -74.258     0.000     30.16
S(-2)         1.462e+00
   H2S             1.461e+00   1.462e+00     0.165     0.165     0.000     36.87
   HS-             4.427e-04   4.323e-04    -3.354    -3.364    -0.010     20.67
   S-2             2.277e-13   2.072e-13   -12.643   -12.684    -0.041     (0)  
S(6)          1.774e-10
   SO4-2           1.715e-10   1.560e-10    -9.766    -9.807    -0.041     14.41
   HSO4-           5.835e-12   5.698e-12   -11.234   -11.244    -0.010     34.80

------------------------------Saturation indices-------------------------------

	Phase               SI   log IAP   log K(298 K, 171 atm)

	H2(g)            -6.05     -9.15   -3.10  H2
	H2O(g)           -1.46     -0.01    1.45  H2O	 Pressure   1.4 atm, phi 0.025.
	H2S(g)            1.09     -6.73   -7.82  H2S	 Pressure 169.1 atm, phi 0.125.
	O2(g)           -71.26    -74.26   -3.00  O2
	Sulfur            1.02      6.08    5.05  S


Reaction step 19.

Using solution 1.	
Using gas phase 1.	
Using reaction 1.	

Reaction 1.	

	  1.500e+00 moles of the following reaction have been added:

	                 Relative
	Reactant            moles

	H2S                  1.00000

	                 Relative
	Element             moles
	H                    2.00000
	S                    1.00000

-----------------------------------Gas phase-----------------------------------

Total pressure: 418.26      atmospheres          (Peng-Robinson calculation)
    Gas volume:   1.00e+00 liters
  Molar volume:   3.67e-02 liters/mole
   P * Vm / RT:  0.62759  (Compressibility Factor Z) 

                                                        Moles in gas
                                            ----------------------------------
Component         log P           P    phi     Initial       Final       Delta

H2O(g)             0.53   3.373e+00  0.012   2.114e-01   2.197e-01   8.298e-03
H2S(g)             2.62   4.149e+02  0.075   2.554e+01   2.702e+01   1.477e+00

-----------------------------Solution composition------------------------------

	Elements           Molality       Moles

	S                 1.486e+00   1.480e+00

----------------------------Description of solution----------------------------

                                       pH  =   3.327      Charge balance
                                       pe  =  -0.415      Adjusted to redox equilibrium
       Specific Conductance (uS/cm, 25 oC) = 197
                          Density (g/cm3)  =   1.01106
                        Activity of water  =   0.975
                           Ionic strength  =   4.828e-04
                       Mass of water (kg)  =   9.960e-01
                 Total alkalinity (eq/kg)  =  -1.100e-10
                    Total carbon (mol/kg)  =   0.000e+00
                       Total CO2 (mol/kg)  =   0.000e+00
                      Temperature (deg C)  =  25.00
                           Pressure (atm)  = 418.26
                  Electrical balance (eq)  =  -2.168e-10
 Percent error, 100*(Cat-|An|)/(Cat+|An|)  =  -0.00
                               Iterations  =  39
                                  Total H  = 1.135323e+02
                                  Total O  = 5.528653e+01

----------------------------Distribution of species----------------------------

                                               Log       Log       Log    mole V
   Species          Molality    Activity  Molality  Activity     Gamma   cm3/mol

   H+              4.828e-04   4.715e-04    -3.316    -3.327    -0.010      0.00
   OH-             3.011e-11   2.937e-11   -10.521   -10.532    -0.011     -2.72
   H2O             5.551e+01   9.747e-01     1.744    -0.011     0.000     17.74
H(0)          1.311e-09
   H2              6.553e-10   6.554e-10    -9.184    -9.183     0.000     28.43
O(0)          0.000e+00
   O2              0.000e+00   0.000e+00   -74.415   -74.415     0.000     29.85
S(-2)         1.486e+00
   H2S             1.485e+00   1.485e+00     0.172     0.172     0.000     36.50
   HS-             4.828e-04   4.711e-04    -3.316    -3.327    -0.011     20.77
   S-2             1.331e-13   1.207e-13   -12.876   -12.918    -0.042     (0)  
S(6)          1.638e-10
   SO4-2           1.589e-10   1.441e-10    -9.799    -9.841    -0.042     15.89
   HSO4-           4.940e-12   4.820e-12   -11.306   -11.317    -0.011     34.37

------------------------------Saturation indices-------------------------------

	Phase               SI   log IAP   log K(298 K, 418 atm)

	H2(g)            -6.08     -9.18   -3.10  H2
	H2O(g)           -1.38     -0.01    1.37  H2O	 Pressure   3.4 atm, phi 0.012.
	H2S(g)            1.49     -6.65   -8.15  H2S	 Pressure 414.9 atm, phi 0.075.
	O2(g)           -71.26    -74.41   -3.16  O2
	Sulfur            1.27      5.99    4.73  S


Reaction step 20.

Using solution 1.	
Using gas phase 1.	
Using reaction 1.	

Reaction 1.	

	  1.500e+00 moles of the following reaction have been added:

	                 Relative
	Reactant            moles

	H2S                  1.00000

	                 Relative
	Element             moles
	H                    2.00000
	S                    1.00000

-----------------------------------Gas phase-----------------------------------

Total pressure: 816.10      atmospheres          (Peng-Robinson calculation)
    Gas volume:   1.00e+00 liters
  Molar volume:   3.48e-02 liters/mole
   P * Vm / RT:  1.16103  (Compressibility Factor Z) 

                                                        Moles in gas
                                            ----------------------------------
Component         log P           P    phi     Initial       Final       Delta

H2O(g)             0.79   6.164e+00  0.009   2.197e-01   2.170e-01  -2.693e-03
H2S(g)             2.91   8.099e+02  0.069   2.702e+01   2.851e+01   1.493e+00

-----------------------------Solution composition------------------------------

	Elements           Molality       Moles

	S                 1.493e+00   1.487e+00

----------------------------Description of solution----------------------------

                                       pH  =   3.275      Charge balance
                                       pe  =  -0.432      Adjusted to redox equilibrium
       Specific Conductance (uS/cm, 25 oC) = 222
                          Density (g/cm3)  =   1.02696
                        Activity of water  =   0.975
                           Ionic strength  =   5.447e-04
                       Mass of water (kg)  =   9.961e-01
                 Total alkalinity (eq/kg)  =  -6.743e-11
                    Total carbon (mol/kg)  =   0.000e+00
                       Total CO2 (mol/kg)  =   0.000e+00
                      Temperature (deg C)  =  25.00
                           Pressure (atm)  = 816.10
                  Electrical balance (eq)  =  -2.168e-10
 Percent error, 100*(Cat-|An|)/(Cat+|An|)  =  -0.00
                               Iterations  =  49
                                  Total H  = 1.135524e+02
                                  Total O  = 5.528922e+01

----------------------------Distribution of species----------------------------

                                               Log       Log       Log    mole V
   Species          Molality    Activity  Molality  Activity     Gamma   cm3/mol

   H+              5.447e-04   5.314e-04    -3.264    -3.275    -0.011      0.00
   OH-             3.569e-11   3.479e-11   -10.447   -10.459    -0.011     -1.68
   H2O             5.551e+01   9.746e-01     1.744    -0.011     0.000     17.47
H(0)          1.140e-09
   H2              5.702e-10   5.703e-10    -9.244    -9.244     0.000     28.30
O(0)          0.000e+00
   O2              0.000e+00   0.000e+00   -74.654   -74.654     0.000     29.45
S(-2)         1.493e+00
   H2S             1.492e+00   1.492e+00     0.174     0.174     0.000     36.02
   HS-             5.447e-04   5.309e-04    -3.264    -3.275    -0.011     20.93
   S-2             1.336e-13   1.207e-13   -12.874   -12.918    -0.044     (0)  
S(6)          1.425e-10
   SO4-2           1.386e-10   1.252e-10    -9.858    -9.902    -0.044     17.87
   HSO4-           3.902e-12   3.803e-12   -11.409   -11.420    -0.011     33.82

------------------------------Saturation indices-------------------------------

	Phase               SI   log IAP   log K(298 K, 816 atm)

	H2(g)            -6.14     -9.24   -3.10  H2
	H2O(g)           -1.26     -0.01    1.25  H2O	 Pressure   6.2 atm, phi 0.009.
	H2S(g)            1.75     -6.55   -8.30  H2S	 Pressure 809.9 atm, phi 0.069.
	O2(g)           -71.26    -74.65   -3.40  O2
	Sulfur            1.28      5.86    4.58  S


------------------
End of simulation.
------------------

------------------------------------
Reading input data for simulation 5.
------------------------------------

------------------------------
End of Run after 0.14 Seconds.
------------------------------

