WARNING: Database file from DATABASE keyword is used; command line argument ignored.
   Input file: PercentSC
  Output file: PercentSC.out
Database file: ../database/phreeqc.dat

------------------
Reading data base.
------------------

	SOLUTION_MASTER_SPECIES
	SOLUTION_SPECIES
	PHASES
	EXCHANGE_MASTER_SPECIES
	EXCHANGE_SPECIES
	SURFACE_MASTER_SPECIES
	SURFACE_SPECIES
	RATES
	END
------------------------------------
Reading input data for simulation 1.
------------------------------------

	DATABASE ../database/phreeqc.dat
	SELECTED_OUTPUT 101
	    file                 PercentSC_101.sel
	USER_PUNCH 101
	    headings Mu SC
	    start
	10 PUNCH STR_F$(MU, 20, 12)
	20 PUNCH STR_F$(SC, 20, 10)
	    end
	SOLUTION 1  SEAWATER FROM NORDSTROM AND OTHERS (1979)
	        units   ppm
	        pH      8.22
	        pe      8.451
	        density 1.023
	        temp    25.0
	        Ca              412.3
	        Mg              1291.8
	        Na              10768.0
	        K               399.1
	        Si              4.28
	        Cl              19353.0
	        Alkalinity      141.682 as HCO3
	        S(6)            2712.0
	USER_PRINT
	10 PRINT "Specific conductance: ", STR_F$(SC,15,1)
	20 PRINT
	30 t = SYS("AQ", count, name$, type$, moles)
	40 DIM spec_sc(count)
	100 FOR i = 1 TO count
	110   REM Get charge
	120   t$ = SPECIES_FORMULA$(name$(i), count_s, elt$, coef)
	130   FOR j = 1 TO count_s
	140     IF (elt$(j) = "charge") THEN l_z = ABS(coef(j))
	150   NEXT j
	155   mu_x = MU
	160   l_m = LM(name$(i))
	170   Dw = DIFF_C(name$(i))
	180   l_g = LG(Name$(i))
	190   IF ((l_z = 0) OR (Dw = 0) OR (l_m < -9)) THEN GOTO 300
	200   IF (mu_x < 0.36*l_z)         THEN ff = 0.6 / SQRT(l_z)         ELSE ff = SQRT(mu_x)/l_z 
	210   ff = ff * l_g
	220   IF (ff > 0) THEN ff = 0
	230   a = 10^(l_m + ff)
	240   spec_sc(i) = a * l_z * l_z * Dw
	250   tot_sc = tot_sc + spec_sc(i)
	300 NEXT i
	310 faraday = 96493.5
	320 r = 0.00831470
	330 sc_calc = tot_sc * 1e7 * faraday * faraday / (r * 298160)
	340 visc = 10^(-(1.37023 * (TC - 20) + 0.000836 * (TC - 20) * (TC - 20)) / (109 + TC))
	350 sc_calc = sc_calc * 0.88862 / visc
	400  PRINT "Species      Percentage of SC"
	405  t = 0
	410  FOR i = 1 TO count
	420    IF (spec_sc(i) = 0) THEN GOTO 440
	430    PRINT PAD(name$(i),10), STR_F$(100*spec_sc(i)/tot_sc, 15, 2)
	440  NEXT I
	END
-------------------------------------------
Beginning of initial solution calculations.
-------------------------------------------

Initial solution 1.	SEAWATER FROM NORDSTROM AND OTHERS (1979)

----------------------------------User print-----------------------------------

Specific conductance:          52731.5 

Species      Percentage of SC 
Cl-                  58.30 
Na+                  33.02 
Mg+2                  4.31 
SO4-2                 1.70 
K+                    1.11 
Ca+2                  0.97 
NaSO4-                0.46 
HCO3-                 0.07 
MgHCO3+               0.01 
Mg(SO4)2-2            0.04 
KSO4-                 0.01 
CaHCO3+               0.00 
CO3-2                 0.00 
OH-                   0.00 
H+                    0.00 
HSO4-                 0.00 

-----------------------------Solution composition------------------------------

	Elements           Molality       Moles

	Alkalinity        2.406e-03   2.406e-03
	Ca                1.066e-02   1.066e-02
	Cl                5.657e-01   5.657e-01
	K                 1.058e-02   1.058e-02
	Mg                5.507e-02   5.507e-02
	Na                4.854e-01   4.854e-01
	S(6)              2.926e-02   2.926e-02
	Si                7.382e-05   7.382e-05

----------------------------Description of solution----------------------------

                                       pH  =   8.220    
                                       pe  =   8.451    
      Specific Conductance (µS/cm,  25°C)  = 52731
                          Density (g/cm³)  =   1.02327
                               Volume (L)  =   1.01279
                        Viscosity (mPa s)  =   0.95702
                        Activity of water  =   0.981
                 Ionic strength (mol/kgw)  =   6.741e-01
                       Mass of water (kg)  =   1.000e+00
                    Total carbon (mol/kg)  =   2.240e-03
                       Total CO2 (mol/kg)  =   2.240e-03
                         Temperature (°C)  =  25.00
                  Electrical balance (eq)  =   7.967e-04
 Percent error, 100*(Cat-|An|)/(Cat+|An|)  =   0.07
                               Iterations  =   8
                                  Total H  = 1.110148e+02
                                  Total O  = 5.563026e+01

----------------------------Distribution of species----------------------------

                                               Log       Log       Log    mole V
   Species          Molality    Activity  Molality  Activity     Gamma   cm³/mol

   OH-             2.705e-06   1.647e-06    -5.568    -5.783    -0.215     -2.63
   H+              7.983e-09   6.026e-09    -8.098    -8.220    -0.122      0.00
   H2O             5.551e+01   9.806e-01     1.744    -0.009     0.000     18.07
C(4)          2.240e-03
   HCO3-           1.572e-03   1.062e-03    -2.803    -2.974    -0.170     26.61
   MgHCO3+         2.743e-04   1.725e-04    -3.562    -3.763    -0.201      5.82
   NaHCO3          1.700e-04   2.430e-04    -3.770    -3.614     0.155     28.00
   MgCO3           9.375e-05   1.095e-04    -4.028    -3.961     0.067    -17.09
   CaHCO3+         4.751e-05   3.288e-05    -4.323    -4.483    -0.160      9.96
   CO3-2           3.973e-05   8.264e-06    -4.401    -5.083    -0.682     -0.40
   CaCO3           2.885e-05   3.369e-05    -4.540    -4.472     0.067    -14.60
   CO2             1.324e-05   1.467e-05    -4.878    -4.834     0.044     34.43
   (CO2)2          3.382e-12   3.950e-12   -11.471   -11.403     0.067     68.87
Ca            1.066e-02
   Ca+2            9.706e-03   2.427e-03    -2.013    -2.615    -0.602    -16.70
   CaSO4           8.788e-04   1.026e-03    -3.056    -2.989     0.067      7.50
   CaHCO3+         4.751e-05   3.288e-05    -4.323    -4.483    -0.160      9.96
   CaCO3           2.885e-05   3.369e-05    -4.540    -4.472     0.067    -14.60
   CaOH+           8.777e-08   6.554e-08    -7.057    -7.183    -0.127     (0)  
   CaHSO4+         5.444e-11   4.065e-11   -10.264   -10.391    -0.127     (0)  
Cl            5.657e-01
   Cl-             5.657e-01   3.568e-01    -0.247    -0.448    -0.200     18.79
   HCl             3.826e-10   7.407e-10    -9.417    -9.130     0.287     (0)  
H(0)          5.516e-37
   H2              2.758e-37   3.221e-37   -36.559   -36.492     0.067     28.61
K             1.058e-02
   K+              1.043e-02   6.501e-03    -1.982    -2.187    -0.205      9.66
   KSO4-           1.471e-04   5.683e-05    -3.832    -4.245    -0.413     32.21
Mg            5.507e-02
   Mg+2            4.811e-02   1.389e-02    -1.318    -1.857    -0.540    -20.41
   MgSO4           6.339e-03   8.646e-03    -2.198    -2.063     0.135     -0.83
   MgHCO3+         2.743e-04   1.725e-04    -3.562    -3.763    -0.201      5.82
   Mg(SO4)2-2      2.394e-04   6.773e-05    -3.621    -4.169    -0.548     48.54
   MgCO3           9.375e-05   1.095e-04    -4.028    -3.961     0.067    -17.09
   MgOH+           1.164e-05   8.204e-06    -4.934    -5.086    -0.152     (0)  
Na            4.854e-01
   Na+             4.769e-01   3.422e-01    -0.322    -0.466    -0.144     -0.50
   NaSO4-          8.339e-03   3.180e-03    -2.079    -2.498    -0.419     20.67
   NaHCO3          1.700e-04   2.430e-04    -3.770    -3.614     0.155     28.00
   NaOH            4.827e-17   5.637e-17   -16.316   -16.249     0.067     (0)  
O(0)          6.616e-20
   O2              3.308e-20   3.863e-20   -19.480   -19.413     0.067     30.40
S(6)          2.926e-02
   SO4-2           1.307e-02   2.378e-03    -1.884    -2.624    -0.740     17.77
   NaSO4-          8.339e-03   3.180e-03    -2.079    -2.498    -0.419     20.67
   MgSO4           6.339e-03   8.646e-03    -2.198    -2.063     0.135     -0.83
   CaSO4           8.788e-04   1.026e-03    -3.056    -2.989     0.067      7.50
   Mg(SO4)2-2      2.394e-04   6.773e-05    -3.621    -4.169    -0.548     48.54
   KSO4-           1.471e-04   5.683e-05    -3.832    -4.245    -0.413     32.21
   HSO4-           1.866e-09   1.393e-09    -8.729    -8.856    -0.127     40.96
   CaHSO4+         5.444e-11   4.065e-11   -10.264   -10.391    -0.127     (0)  
Si            7.382e-05
   H4SiO4          7.061e-05   8.247e-05    -4.151    -4.084     0.067     52.08
   H3SiO4-         3.209e-06   2.018e-06    -5.494    -5.695    -0.201     28.72
   H2SiO4-2        1.095e-10   2.278e-11    -9.961   -10.642    -0.682     (0)  

------------------------------Saturation indices-------------------------------

  Phase               SI** log IAP   log K(298 K,   1 atm)

  Anhydrite        -0.96     -5.24   -4.28  CaSO4
  Aragonite         0.64     -7.70   -8.34  CaCO3
  Arcanite         -5.12     -7.00   -1.88  K2SO4
  Calcite           0.78     -7.70   -8.48  CaCO3
  Chalcedony       -0.52     -4.07   -3.55  SiO2
  Chrysotile        3.37     35.57   32.20  Mg3Si2O5(OH)4
  CO2(g)           -3.37     -4.83   -1.47  CO2
  Dolomite          2.45    -14.64  -17.08  CaMg(CO3)2
  Epsomite         -2.80     -4.54   -1.74  MgSO4:7H2O
  Gypsum           -0.67     -5.26   -4.58  CaSO4:2H2O
  H2(g)           -33.39    -36.49   -3.10  H2
  H2O(g)           -1.51     -0.01    1.50  H2O
  Halite           -2.48     -0.91    1.57  NaCl
  Hexahydrite      -2.97     -4.53   -1.57  MgSO4:6H2O
  Kieserite        -3.33     -4.49   -1.16  MgSO4:H2O
  Mirabilite       -2.40     -3.64   -1.24  Na2SO4:10H2O
  O2(g)           -16.52    -19.41   -2.89  O2
  Quartz           -0.09     -4.07   -3.98  SiO2
  Sepiolite         1.16     16.92   15.76  Mg2Si3O7.5OH:3H2O
  Sepiolite(d)     -1.74     16.92   18.66  Mg2Si3O7.5OH:3H2O
  SiO2(a)          -1.35     -4.07   -2.71  SiO2
  Sylvite          -3.53     -2.63    0.90  KCl
  Talc              6.05     27.45   21.40  Mg3Si4O10(OH)2
  Thenardite       -3.25     -3.56   -0.30  Na2SO4

**For a gas, SI = log10(fugacity). Fugacity = pressure * phi / 1 atm.
  For ideal gases, phi = 1.

------------------
End of simulation.
------------------

------------------------------------
Reading input data for simulation 2.
------------------------------------

	END
------------------
End of simulation.
------------------

------------------------------------
Reading input data for simulation 3.
------------------------------------

