WARNING: Database file from DATABASE keyword is used; command line argument ignored.
   Input file: phi_CO2-CH4_GP
  Output file: phi_CO2-CH4_GP.out
Database file: ../database/Amm.dat

------------------
Reading data base.
------------------

	SOLUTION_MASTER_SPECIES
	SOLUTION_SPECIES
	PHASES
	EXCHANGE_MASTER_SPECIES
	EXCHANGE_SPECIES
	SURFACE_MASTER_SPECIES
	SURFACE_SPECIES
	RATES
	END
------------------------------------
Reading input data for simulation 1.
------------------------------------

	DATABASE ../database/Amm.dat
	SELECTED_OUTPUT 101
	    file                 phi_CO2-CH4_GP_101.sel
	USER_PUNCH 101
	    headings Mu SC
	    start
	10 PUNCH STR_F$(MU, 20, 12)
	20 PUNCH STR_F$(SC, 20, 10)
	    end
	SOLUTION 1 pH 7 charge
	GAS_PHASE 6
	    fixed_volume
	    CO2(g) 1
		Mtg(g) 400
	USER_PRINT
	 10 print tc, PR_P("Mtg(g)"), PR_PHI("Mtg(g)")
	USER_GRAPH
	  -headings 25.oC P_total
	 -axis_titles "CO2 pressure / atm" "CO2 fugacity coefficient (-)" "Total pressure / atm"
	 -axis_scale x_axis 0 500
	 -axis_scale y_axis 0 1.2
	 -init false
	 10 x = PR_P("CO2(g)")
	 20 plot_xy x, PR_Phi("CO2(g)"), symbol = None, line_w 2 color = Red
	 30 if step_no > 0 then plot_xy x, gas_p, symbol = Circle, line_w 1, y_axis = 2 color = Red 
	 -end
	REACTION
	 CO2 1
	 0.01 5*0.1 11*1
	INCREMENTAL_REACTIONS true
	END
-------------------------------------------
Beginning of initial solution calculations.
-------------------------------------------

Initial solution 1.	pH 7 charge

----------------------------------User print-----------------------------------

          25            0            1 

-----------------------------Solution composition------------------------------

	Elements           Molality       Moles

	Pure water     

----------------------------Description of solution----------------------------

                                       pH  =   7.000    
                                       pe  =   4.000    
       Specific Conductance (µS/cm, 25°C)  = 0
                          Density (g/cm³)  =   0.99704
                               Volume (L)  =   1.00297
                        Activity of water  =   1.000
                           Ionic strength  =   1.007e-07
                       Mass of water (kg)  =   1.000e+00
                 Total alkalinity (eq/kg)  =   1.217e-09
                    Total carbon (mol/kg)  =   0.000e+00
                       Total CO2 (mol/kg)  =   0.000e+00
                         Temperature (°C)  =  25.00
                  Electrical balance (eq)  =  -1.217e-09
 Percent error, 100*(Cat-|An|)/(Cat+|An|)  =  -0.60
                               Iterations  =   0
                                  Total H  = 1.110124e+02
                                  Total O  = 5.550622e+01

----------------------------Distribution of species----------------------------

                                               Log       Log       Log    mole V
   Species          Molality    Activity  Molality  Activity     Gamma   cm³/mol

   OH-             1.013e-07   1.012e-07    -6.995    -6.995    -0.000     -4.14
   H+              1.001e-07   1.000e-07    -7.000    -7.000    -0.000      0.00
   H2O             5.551e+01   1.000e+00     1.744     0.000     0.000     18.07
H(0)          1.416e-25
   H2              7.079e-26   7.079e-26   -25.150   -25.150     0.000     28.61
O(0)          0.000e+00
   O2              0.000e+00   0.000e+00   -42.080   -42.080     0.000     30.40

------------------------------Saturation indices-------------------------------

  Phase               SI** log IAP   log K(298 K,   1 atm)

  H2(g)           -22.05    -25.15   -3.10  H2
  H2O(g)           -1.50      0.00    1.50  H2O
  O2(g)           -39.19    -42.08   -2.89  O2

**For a gas, SI = log10(fugacity). Fugacity = pressure * phi / 1 atm.
  For ideal gases, phi = 1.

-----------------------------------------
Beginning of batch-reaction calculations.
-----------------------------------------

Reaction step 1.

Using solution 1.	pH 7 charge
Using gas phase 6.	
Using reaction 1.	

Reaction 1.	

	  1.000e-02 moles of the following reaction have been added:

	                 Relative
	Reactant            moles

	CO2                  1.00000

	                 Relative
	Element             moles
	C                    1.00000
	O                    2.00000

----------------------------------User print-----------------------------------

          25   3.8927e+02   6.5590e-01 

-----------------------------------Gas phase-----------------------------------

Total pressure: 390.34      atmospheres          (Peng-Robinson calculation)
    Gas volume:   1.00e+00 liters
  Molar volume:   6.13e-02 liters/mole
   P * Vm / RT:  0.97873  (Compressibility Factor Z) 

                                                        Moles in gas
                                            ----------------------------------
Component         log P           P    phi     Initial       Final       Delta

CO2(g)             0.03   1.077e+00  0.291   4.124e-02   4.500e-02   3.752e-03
Mtg(g)             2.59   3.893e+02  0.656   1.650e+01   1.626e+01  -2.413e-01

-----------------------------Solution composition------------------------------

	Elements           Molality       Moles

	C                 6.248e-03   6.248e-03
	Mtg               2.413e-01   2.413e-01

----------------------------Description of solution----------------------------

                                       pH  =   4.188      Charge balance
                                       pe  =  13.686      Adjusted to redox equilibrium
       Specific Conductance (µS/cm, 25°C)  = 25
                          Density (g/cm³)  =   1.01015
                               Volume (L)  =   0.99405
                        Activity of water  =   0.996
                           Ionic strength  =   6.546e-05
                       Mass of water (kg)  =   1.000e+00
                 Total alkalinity (eq/kg)  =   1.217e-09
                       Total CO2 (mol/kg)  =   6.248e-03
                         Temperature (°C)  =  25.00
                           Pressure (atm)  = 390.34
                  Electrical balance (eq)  =  -1.217e-09
 Percent error, 100*(Cat-|An|)/(Cat+|An|)  =  -0.00
                               Iterations  =  87
                                  Total H  = 1.110124e+02
                                  Total O  = 5.551871e+01

----------------------------Distribution of species----------------------------

                                               Log       Log       Log    mole V
   Species          Molality    Activity  Molality  Activity     Gamma   cm³/mol

   H+              6.546e-05   6.487e-05    -4.184    -4.188    -0.004      0.00
   OH-             2.176e-10   2.156e-10    -9.662    -9.666    -0.004     -2.83
   H2O             5.551e+01   9.958e-01     1.744    -0.002     0.000     17.76
C(-4)         0.000e+00
   CH4             0.000e+00   0.000e+00  -121.061  -121.061     0.000     35.91
C(4)          6.248e-03
   CO2             6.181e-03   6.181e-03    -2.209    -2.209     0.000     34.25
   HCO3-           6.546e-05   6.487e-05    -4.184    -4.188    -0.004     25.01
   (CO2)2          7.013e-07   7.014e-07    -6.154    -6.154     0.000     68.50
   CO3-2           7.492e-11   7.221e-11   -10.125   -10.141    -0.016     -2.12
H(0)          1.611e-39
   H2              8.055e-40   8.056e-40   -39.094   -39.094     0.000     28.44
Mtg           2.413e-01
   Mtg             2.413e-01   2.413e-01    -0.617    -0.617     0.000     32.22
O(0)          5.637e-15
   O2              2.819e-15   2.819e-15   -14.550   -14.550     0.000     29.89

------------------------------Saturation indices-------------------------------

  Phase               SI** log IAP   log K(298 K, 390 atm)

  CH4(g)         -118.01   -121.06   -3.05  CH4
  CO2(g)           -0.50     -2.21   -1.70  CO2	 Pressure   1.1 atm, phi 0.291
  H2(g)           -35.80    -39.09   -3.30  H2
  H2O(g)           -1.38     -0.00    1.38  H2O
  Mtg(g)            2.41     -0.62   -3.02  Mtg	 Pressure 389.3 atm, phi 0.656
  O2(g)           -11.45    -14.55   -3.10  O2

**For a gas, SI = log10(fugacity). Fugacity = pressure * phi / 1 atm.
  For ideal gases, phi = 1.

Reaction step 2.

Using solution 1.	pH 7 charge
Using gas phase 6.	
Using reaction 1.	

Reaction 1.	

	  1.000e-01 moles of the following reaction have been added:

	                 Relative
	Reactant            moles

	CO2                  1.00000

	                 Relative
	Element             moles
	C                    1.00000
	O                    2.00000

----------------------------------User print-----------------------------------

          25   3.8965e+02   6.5583e-01 

-----------------------------------Gas phase-----------------------------------

Total pressure: 392.84      atmospheres          (Peng-Robinson calculation)
    Gas volume:   1.00e+00 liters
  Molar volume:   6.10e-02 liters/mole
   P * Vm / RT:  0.97966  (Compressibility Factor Z) 

                                                        Moles in gas
                                            ----------------------------------
Component         log P           P    phi     Initial       Final       Delta

CO2(g)             0.50   3.188e+00  0.289   4.500e-02   1.330e-01   8.800e-02
Mtg(g)             2.59   3.897e+02  0.656   1.626e+01   1.626e+01   5.809e-04

-----------------------------Solution composition------------------------------

	Elements           Molality       Moles

	C                 1.825e-02   1.825e-02
	Mtg               2.407e-01   2.407e-01

----------------------------Description of solution----------------------------

                                       pH  =   3.954      Charge balance
                                       pe  =  13.995      Adjusted to redox equilibrium
       Specific Conductance (µS/cm, 25°C)  = 44
                          Density (g/cm³)  =   1.01038
                               Volume (L)  =   0.99434
                        Activity of water  =   0.996
                           Ionic strength  =   1.126e-04
                       Mass of water (kg)  =   1.000e+00
                 Total alkalinity (eq/kg)  =   1.217e-09
                       Total CO2 (mol/kg)  =   1.825e-02
                         Temperature (°C)  =  25.00
                           Pressure (atm)  = 392.84
                  Electrical balance (eq)  =  -1.217e-09
 Percent error, 100*(Cat-|An|)/(Cat+|An|)  =  -0.00
                               Iterations  =  61
                                  Total H  = 1.110124e+02
                                  Total O  = 5.554272e+01

----------------------------Distribution of species----------------------------

                                               Log       Log       Log    mole V
   Species          Molality    Activity  Molality  Activity     Gamma   cm³/mol

   H+              1.125e-04   1.112e-04    -3.949    -3.954    -0.005      0.00
   OH-             1.275e-10   1.260e-10    -9.894    -9.900    -0.005     -2.82
   H2O             5.551e+01   9.956e-01     1.744    -0.002     0.000     17.76
C(-4)         0.000e+00
   CH4             0.000e+00   0.000e+00  -121.196  -121.196     0.000     35.92
C(4)          1.825e-02
   CO2             1.813e-02   1.813e-02    -1.742    -1.742     0.000     34.25
   HCO3-           1.126e-04   1.112e-04    -3.949    -3.954    -0.005     25.01
   (CO2)2          6.030e-06   6.031e-06    -5.220    -5.220     0.000     68.50
   CO3-2           7.594e-11   7.238e-11   -10.120   -10.140    -0.021     -2.09
H(0)          1.137e-39
   H2              5.684e-40   5.684e-40   -39.245   -39.245     0.000     28.44
Mtg           2.407e-01
   Mtg             2.407e-01   2.407e-01    -0.618    -0.618     0.000     32.22
O(0)          1.126e-14
   O2              5.630e-15   5.630e-15   -14.250   -14.249     0.000     29.88

------------------------------Saturation indices-------------------------------

  Phase               SI** log IAP   log K(298 K, 393 atm)

  CH4(g)         -118.14   -121.20   -3.05  CH4
  CO2(g)           -0.04     -1.74   -1.71  CO2	 Pressure   3.2 atm, phi 0.289
  H2(g)           -35.95    -39.25   -3.30  H2
  H2O(g)           -1.38     -0.00    1.38  H2O
  Mtg(g)            2.41     -0.62   -3.03  Mtg	 Pressure 389.7 atm, phi 0.656
  O2(g)           -11.15    -14.25   -3.10  O2

**For a gas, SI = log10(fugacity). Fugacity = pressure * phi / 1 atm.
  For ideal gases, phi = 1.

Reaction step 3.

Using solution 1.	pH 7 charge
Using gas phase 6.	
Using reaction 1.	

Reaction 1.	

	  1.000e-01 moles of the following reaction have been added:

	                 Relative
	Reactant            moles

	CO2                  1.00000

	                 Relative
	Element             moles
	C                    1.00000
	O                    2.00000

----------------------------------User print-----------------------------------

          25   3.9007e+02   6.5579e-01 

-----------------------------------Gas phase-----------------------------------

Total pressure: 395.37      atmospheres          (Peng-Robinson calculation)
    Gas volume:   1.00e+00 liters
  Molar volume:   6.07e-02 liters/mole
   P * Vm / RT:  0.98067  (Compressibility Factor Z) 

                                                        Moles in gas
                                            ----------------------------------
Component         log P           P    phi     Initial       Final       Delta

CO2(g)             0.72   5.306e+00  0.288   1.330e-01   2.212e-01   8.817e-02
Mtg(g)             2.59   3.901e+02  0.656   1.626e+01   1.626e+01   5.650e-04

-----------------------------Solution composition------------------------------

	Elements           Molality       Moles

	C                 3.008e-02   3.008e-02
	Mtg               2.402e-01   2.402e-01

----------------------------Description of solution----------------------------

                                       pH  =   3.845      Charge balance
                                       pe  =  14.185      Adjusted to redox equilibrium
       Specific Conductance (µS/cm, 25°C)  = 56
                          Density (g/cm³)  =   1.01061
                               Volume (L)  =   0.99462
                        Activity of water  =   0.995
                           Ionic strength  =   1.450e-04
                       Mass of water (kg)  =   1.000e+00
                 Total alkalinity (eq/kg)  =   1.218e-09
                       Total CO2 (mol/kg)  =   3.008e-02
                         Temperature (°C)  =  25.00
                           Pressure (atm)  = 395.37
                  Electrical balance (eq)  =  -1.218e-09
 Percent error, 100*(Cat-|An|)/(Cat+|An|)  =  -0.00
                               Iterations  =  57
                                  Total H  = 1.110124e+02
                                  Total O  = 5.556638e+01

----------------------------Distribution of species----------------------------

                                               Log       Log       Log    mole V
   Species          Molality    Activity  Molality  Activity     Gamma   cm³/mol

   H+              1.450e-04   1.430e-04    -3.839    -3.845    -0.006      0.00
   OH-             9.948e-11   9.813e-11   -10.002   -10.008    -0.006     -2.81
   H2O             5.551e+01   9.954e-01     1.744    -0.002     0.000     17.76
C(-4)         0.000e+00
   CH4             0.000e+00   0.000e+00  -121.626  -121.626     0.000     35.92
C(4)          3.008e-02
   CO2             2.990e-02   2.991e-02    -1.524    -1.524     0.000     34.25
   HCO3-           1.450e-04   1.430e-04    -3.839    -3.845    -0.006     25.02
   (CO2)2          1.642e-05   1.642e-05    -4.785    -4.785     0.000     68.50
   CO3-2           7.661e-11   7.256e-11   -10.116   -10.139    -0.024     -2.07
H(0)          7.816e-40
   H2              3.908e-40   3.908e-40   -39.408   -39.408     0.000     28.44
Mtg           2.402e-01
   Mtg             2.402e-01   2.402e-01    -0.620    -0.619     0.000     32.22
O(0)          2.368e-14
   O2              1.184e-14   1.184e-14   -13.927   -13.927     0.000     29.88

------------------------------Saturation indices-------------------------------

  Phase               SI** log IAP   log K(298 K, 395 atm)

  CH4(g)         -118.57   -121.63   -3.05  CH4
  CO2(g)            0.18     -1.52   -1.71  CO2	 Pressure   5.3 atm, phi 0.288
  H2(g)           -36.11    -39.41   -3.30  H2
  H2O(g)           -1.38     -0.00    1.38  H2O
  Mtg(g)            2.41     -0.62   -3.03  Mtg	 Pressure 390.1 atm, phi 0.656
  O2(g)           -10.83    -13.93   -3.10  O2

**For a gas, SI = log10(fugacity). Fugacity = pressure * phi / 1 atm.
  For ideal gases, phi = 1.

Reaction step 4.

Using solution 1.	pH 7 charge
Using gas phase 6.	
Using reaction 1.	

Reaction 1.	

	  1.000e-01 moles of the following reaction have been added:

	                 Relative
	Reactant            moles

	CO2                  1.00000

	                 Relative
	Element             moles
	C                    1.00000
	O                    2.00000

----------------------------------User print-----------------------------------

          25   3.9051e+02   6.5576e-01 

-----------------------------------Gas phase-----------------------------------

Total pressure: 397.94      atmospheres          (Peng-Robinson calculation)
    Gas volume:   1.00e+00 liters
  Molar volume:   6.04e-02 liters/mole
   P * Vm / RT:  0.98176  (Compressibility Factor Z) 

                                                        Moles in gas
                                            ----------------------------------
Component         log P           P    phi     Initial       Final       Delta

CO2(g)             0.87   7.434e+00  0.286   2.212e-01   3.095e-01   8.833e-02
Mtg(g)             2.59   3.905e+02  0.656   1.626e+01   1.626e+01   5.496e-04

-----------------------------Solution composition------------------------------

	Elements           Molality       Moles

	C                 4.176e-02   4.176e-02
	Mtg               2.396e-01   2.396e-01

----------------------------Description of solution----------------------------

                                       pH  =   3.773      Charge balance
                                       pe  =  14.265      Adjusted to redox equilibrium
       Specific Conductance (µS/cm, 25°C)  = 67
                          Density (g/cm³)  =   1.01084
                               Volume (L)  =   0.99490
                        Activity of water  =   0.995
                           Ionic strength  =   1.712e-04
                       Mass of water (kg)  =   1.000e+00
                 Total alkalinity (eq/kg)  =   1.218e-09
                       Total CO2 (mol/kg)  =   4.176e-02
                         Temperature (°C)  =  25.00
                           Pressure (atm)  = 397.94
                  Electrical balance (eq)  =  -1.218e-09
 Percent error, 100*(Cat-|An|)/(Cat+|An|)  =  -0.00
                               Iterations  =  52
                                  Total H  = 1.110124e+02
                                  Total O  = 5.558973e+01

----------------------------Distribution of species----------------------------

                                               Log       Log       Log    mole V
   Species          Molality    Activity  Molality  Activity     Gamma   cm³/mol

   H+              1.712e-04   1.688e-04    -3.766    -3.773    -0.006      0.00
   OH-             8.457e-11   8.332e-11   -10.073   -10.079    -0.006     -2.80
   H2O             5.551e+01   9.952e-01     1.744    -0.002     0.000     17.76
C(-4)         0.000e+00
   CH4             0.000e+00   0.000e+00  -121.551  -121.551     0.000     35.92
C(4)          4.176e-02
   CO2             4.152e-02   4.152e-02    -1.382    -1.382     0.000     34.25
   HCO3-           1.712e-04   1.687e-04    -3.766    -3.773    -0.006     25.02
   (CO2)2          3.165e-05   3.165e-05    -4.500    -4.500     0.000     68.50
   CO3-2           7.715e-11   7.274e-11   -10.113   -10.138    -0.026     -2.05
H(0)          7.503e-40
   H2              3.752e-40   3.752e-40   -39.426   -39.426     0.000     28.44
Mtg           2.396e-01
   Mtg             2.396e-01   2.396e-01    -0.621    -0.620     0.000     32.22
O(0)          2.555e-14
   O2              1.278e-14   1.278e-14   -13.894   -13.894     0.000     29.88

------------------------------Saturation indices-------------------------------

  Phase               SI** log IAP   log K(298 K, 398 atm)

  CH4(g)         -118.50   -121.55   -3.05  CH4
  CO2(g)            0.33     -1.38   -1.71  CO2	 Pressure   7.4 atm, phi 0.286
  H2(g)           -36.12    -39.43   -3.30  H2
  H2O(g)           -1.38     -0.00    1.38  H2O
  Mtg(g)            2.41     -0.62   -3.03  Mtg	 Pressure 390.5 atm, phi 0.656
  O2(g)           -10.79    -13.89   -3.10  O2

**For a gas, SI = log10(fugacity). Fugacity = pressure * phi / 1 atm.
  For ideal gases, phi = 1.

Reaction step 5.

Using solution 1.	pH 7 charge
Using gas phase 6.	
Using reaction 1.	

Reaction 1.	

	  1.000e-01 moles of the following reaction have been added:

	                 Relative
	Reactant            moles

	CO2                  1.00000

	                 Relative
	Element             moles
	C                    1.00000
	O                    2.00000

----------------------------------User print-----------------------------------

          25   3.9098e+02   6.5576e-01 

-----------------------------------Gas phase-----------------------------------

Total pressure: 400.55      atmospheres          (Peng-Robinson calculation)
    Gas volume:   1.00e+00 liters
  Molar volume:   6.00e-02 liters/mole
   P * Vm / RT:  0.98291  (Compressibility Factor Z) 

                                                        Moles in gas
                                            ----------------------------------
Component         log P           P    phi     Initial       Final       Delta

CO2(g)             0.98   9.570e+00  0.285   3.095e-01   3.980e-01   8.848e-02
Mtg(g)             2.59   3.910e+02  0.656   1.626e+01   1.626e+01   5.348e-04

-----------------------------Solution composition------------------------------

	Elements           Molality       Moles

	C                 5.327e-02   5.327e-02
	Mtg               2.391e-01   2.391e-01

----------------------------Description of solution----------------------------

                                       pH  =   3.719      Charge balance
                                       pe  =  14.359      Adjusted to redox equilibrium
       Specific Conductance (µS/cm, 25°C)  = 75
                          Density (g/cm³)  =   1.01106
                               Volume (L)  =   0.99517
                        Activity of water  =   0.995
                           Ionic strength  =   1.939e-04
                       Mass of water (kg)  =   1.000e+00
                 Total alkalinity (eq/kg)  =   1.218e-09
                       Total CO2 (mol/kg)  =   5.327e-02
                         Temperature (°C)  =  25.00
                           Pressure (atm)  = 400.55
                  Electrical balance (eq)  =  -1.218e-09
 Percent error, 100*(Cat-|An|)/(Cat+|An|)  =  -0.00
                               Iterations  =  65
                                  Total H  = 1.110124e+02
                                  Total O  = 5.561277e+01

----------------------------Distribution of species----------------------------

                                               Log       Log       Log    mole V
   Species          Molality    Activity  Molality  Activity     Gamma   cm³/mol

   H+              1.939e-04   1.909e-04    -3.713    -3.719    -0.007      0.00
   OH-             7.498e-11   7.380e-11   -10.125   -10.132    -0.007     -2.80
   H2O             5.551e+01   9.950e-01     1.744    -0.002     0.000     17.76
C(-4)         0.000e+00
   CH4             0.000e+00   0.000e+00  -121.770  -121.770     0.000     35.92
C(4)          5.327e-02
   CO2             5.298e-02   5.298e-02    -1.276    -1.276     0.000     34.25
   HCO3-           1.939e-04   1.908e-04    -3.713    -3.719    -0.007     25.02
   (CO2)2          5.152e-05   5.152e-05    -4.288    -4.288     0.000     68.49
   CO3-2           7.764e-11   7.292e-11   -10.110   -10.137    -0.027     -2.02
H(0)          6.210e-40
   H2              3.105e-40   3.105e-40   -39.508   -39.508     0.000     28.44
Mtg           2.391e-01
   Mtg             2.391e-01   2.391e-01    -0.621    -0.621     0.000     32.22
O(0)          3.708e-14
   O2              1.854e-14   1.854e-14   -13.732   -13.732     0.000     29.87

------------------------------Saturation indices-------------------------------

  Phase               SI** log IAP   log K(298 K, 401 atm)

  CH4(g)         -118.71   -121.77   -3.06  CH4
  CO2(g)            0.44     -1.28   -1.71  CO2	 Pressure   9.6 atm, phi 0.285
  H2(g)           -36.21    -39.51   -3.30  H2
  H2O(g)           -1.38     -0.00    1.38  H2O
  Mtg(g)            2.41     -0.62   -3.03  Mtg	 Pressure 391.0 atm, phi 0.656
  O2(g)           -10.63    -13.73   -3.10  O2

**For a gas, SI = log10(fugacity). Fugacity = pressure * phi / 1 atm.
  For ideal gases, phi = 1.

Reaction step 6.

Using solution 1.	pH 7 charge
Using gas phase 6.	
Using reaction 1.	

Reaction 1.	

	  1.000e-01 moles of the following reaction have been added:

	                 Relative
	Reactant            moles

	CO2                  1.00000

	                 Relative
	Element             moles
	C                    1.00000
	O                    2.00000

----------------------------------User print-----------------------------------

          25   3.9149e+02   6.5578e-01 

-----------------------------------Gas phase-----------------------------------

Total pressure: 403.20      atmospheres          (Peng-Robinson calculation)
    Gas volume:   1.00e+00 liters
  Molar volume:   5.97e-02 liters/mole
   P * Vm / RT:  0.98414  (Compressibility Factor Z) 

                                                        Moles in gas
                                            ----------------------------------
Component         log P           P    phi     Initial       Final       Delta

CO2(g)             1.07   1.172e+01  0.283   3.980e-01   4.866e-01   8.863e-02
Mtg(g)             2.59   3.915e+02  0.656   1.626e+01   1.626e+01   5.195e-04

-----------------------------Solution composition------------------------------

	Elements           Molality       Moles

	C                 6.464e-02   6.464e-02
	Mtg               2.385e-01   2.385e-01

----------------------------Description of solution----------------------------

                                       pH  =   3.677      Charge balance
                                       pe  =  14.396      Adjusted to redox equilibrium
       Specific Conductance (µS/cm, 25°C)  = 83
                          Density (g/cm³)  =   1.01129
                               Volume (L)  =   0.99543
                        Activity of water  =   0.995
                           Ionic strength  =   2.140e-04
                       Mass of water (kg)  =   1.000e+00
                 Total alkalinity (eq/kg)  =   1.219e-09
                       Total CO2 (mol/kg)  =   6.464e-02
                         Temperature (°C)  =  25.00
                           Pressure (atm)  = 403.20
                  Electrical balance (eq)  =  -1.219e-09
 Percent error, 100*(Cat-|An|)/(Cat+|An|)  =  -0.00
                               Iterations  =  74
                                  Total H  = 1.110124e+02
                                  Total O  = 5.563550e+01

----------------------------Distribution of species----------------------------

                                               Log       Log       Log    mole V
   Species          Molality    Activity  Molality  Activity     Gamma   cm³/mol

   H+              2.140e-04   2.105e-04    -3.670    -3.677    -0.007      0.00
   OH-             6.816e-11   6.704e-11   -10.166   -10.174    -0.007     -2.79
   H2O             5.551e+01   9.948e-01     1.744    -0.002     0.000     17.76
C(-4)         0.000e+00
   CH4             0.000e+00   0.000e+00  -121.644  -121.644     0.000     35.93
C(4)          6.464e-02
   CO2             6.428e-02   6.428e-02    -1.192    -1.192     0.000     34.25
   HCO3-           2.140e-04   2.105e-04    -3.670    -3.677    -0.007     25.02
   (CO2)2          7.584e-05   7.584e-05    -4.120    -4.120     0.000     68.49
   CO3-2           7.808e-11   7.311e-11   -10.107   -10.136    -0.029     -2.00
H(0)          6.347e-40
   H2              3.173e-40   3.174e-40   -39.498   -39.498     0.000     28.44
Mtg           2.385e-01
   Mtg             2.385e-01   2.386e-01    -0.622    -0.622     0.000     32.22
O(0)          3.529e-14
   O2              1.765e-14   1.765e-14   -13.753   -13.753     0.000     29.87

------------------------------Saturation indices-------------------------------

  Phase               SI** log IAP   log K(298 K, 403 atm)

  CH4(g)         -118.59   -121.64   -3.06  CH4
  CO2(g)            0.52     -1.19   -1.71  CO2	 Pressure  11.7 atm, phi 0.283
  H2(g)           -36.19    -39.50   -3.30  H2
  H2O(g)           -1.38     -0.00    1.38  H2O
  Mtg(g)            2.41     -0.62   -3.03  Mtg	 Pressure 391.5 atm, phi 0.656
  O2(g)           -10.65    -13.75   -3.11  O2

**For a gas, SI = log10(fugacity). Fugacity = pressure * phi / 1 atm.
  For ideal gases, phi = 1.

Reaction step 7.

WARNING: Numerical method failed, switching to numerical derivatives.
WARNING: Maximum iterations exceeded, 100

WARNING: Numerical method failed with this set of convergence parameters.

WARNING: Trying smaller step size, pe step size 10, 5 ... 

Using solution 1.	pH 7 charge
Using gas phase 6.	
Using reaction 1.	

Reaction 1.	

	  1.000e+00 moles of the following reaction have been added:

	                 Relative
	Reactant            moles

	CO2                  1.00000

	                 Relative
	Element             moles
	C                    1.00000
	O                    2.00000

----------------------------------User print-----------------------------------

          25   3.9824e+02   6.5730e-01 

-----------------------------------Gas phase-----------------------------------

Total pressure: 432.04      atmospheres          (Peng-Robinson calculation)
    Gas volume:   1.00e+00 liters
  Molar volume:   5.67e-02 liters/mole
   P * Vm / RT:  1.00085  (Compressibility Factor Z) 

                                                        Moles in gas
                                            ----------------------------------
Component         log P           P    phi     Initial       Final       Delta

CO2(g)             1.53   3.380e+01  0.269   4.866e-01   1.381e+00   8.939e-01
Mtg(g)             2.60   3.982e+02  0.657   1.626e+01   1.626e+01   4.395e-03

-----------------------------Solution composition------------------------------

	Elements           Molality       Moles

	C                 1.707e-01   1.707e-01
	Mtg               2.342e-01   2.342e-01

----------------------------Description of solution----------------------------

                                       pH  =   3.460      Charge balance
                                       pe  =  14.791      Adjusted to redox equilibrium
       Specific Conductance (µS/cm, 25°C)  = 138
                          Density (g/cm³)  =   1.01356
                               Volume (L)  =   0.99774
                        Activity of water  =   0.993
                           Ionic strength  =   3.539e-04
                       Mass of water (kg)  =   1.000e+00
                 Total alkalinity (eq/kg)  =   1.218e-09
                       Total CO2 (mol/kg)  =   1.707e-01
                         Temperature (°C)  =  25.00
                           Pressure (atm)  = 432.04
                  Electrical balance (eq)  =  -1.218e-09
 Percent error, 100*(Cat-|An|)/(Cat+|An|)  =  -0.00
                               Iterations  =  12
                                  Total H  = 1.110124e+02
                                  Total O  = 5.584768e+01

----------------------------Distribution of species----------------------------

                                               Log       Log       Log    mole V
   Species          Molality    Activity  Molality  Activity     Gamma   cm³/mol

   H+              3.539e-04   3.467e-04    -3.451    -3.460    -0.009      0.00
   OH-             4.244e-11   4.155e-11   -10.372   -10.381    -0.009     -2.70
   H2O             5.551e+01   9.931e-01     1.744    -0.003     0.000     17.73
C(-4)         0.000e+00
   CH4             0.000e+00   0.000e+00  -122.670  -122.670     0.000     35.95
C(4)          1.707e-01
   CO2             1.693e-01   1.693e-01    -0.771    -0.771     0.000     34.23
   (CO2)2          5.263e-04   5.264e-04    -3.279    -3.279     0.000     68.47
   HCO3-           3.539e-04   3.466e-04    -3.451    -3.460    -0.009     25.05
   CO3-2           8.177e-11   7.520e-11   -10.087   -10.124    -0.036     -1.78
H(0)          2.696e-40
   H2              1.348e-40   1.348e-40   -39.870   -39.870     0.000     28.43
Mtg           2.342e-01
   Mtg             2.342e-01   2.342e-01    -0.630    -0.630     0.000     32.22
O(0)          1.834e-13
   O2              9.172e-14   9.173e-14   -13.038   -13.037     0.000     29.84

------------------------------Saturation indices-------------------------------

  Phase               SI** log IAP   log K(298 K, 432 atm)

  CH4(g)         -119.59   -122.67   -3.08  CH4
  CO2(g)            0.96     -0.77   -1.73  CO2	 Pressure  33.8 atm, phi 0.269
  H2(g)           -36.55    -39.87   -3.32  H2
  H2O(g)           -1.37     -0.00    1.37  H2O
  Mtg(g)            2.42     -0.63   -3.05  Mtg	 Pressure 398.2 atm, phi 0.657
  O2(g)            -9.92    -13.04   -3.12  O2

**For a gas, SI = log10(fugacity). Fugacity = pressure * phi / 1 atm.
  For ideal gases, phi = 1.

Reaction step 8.

WARNING: Numerical method failed, switching to numerical derivatives.
WARNING: Maximum iterations exceeded, 100

WARNING: Numerical method failed with this set of convergence parameters.

WARNING: Trying smaller step size, pe step size 10, 5 ... 

Using solution 1.	pH 7 charge
Using gas phase 6.	
Using reaction 1.	

Reaction 1.	

	  1.000e+00 moles of the following reaction have been added:

	                 Relative
	Reactant            moles

	CO2                  1.00000

	                 Relative
	Element             moles
	C                    1.00000
	O                    2.00000

----------------------------------User print-----------------------------------

          25   4.0848e+02   6.6148e-01 

-----------------------------------Gas phase-----------------------------------

Total pressure: 465.90      atmospheres          (Peng-Robinson calculation)
    Gas volume:   1.00e+00 liters
  Molar volume:   5.39e-02 liters/mole
   P * Vm / RT:  1.02641  (Compressibility Factor Z) 

                                                        Moles in gas
                                            ----------------------------------
Component         log P           P    phi     Initial       Final       Delta

CO2(g)             1.76   5.742e+01  0.257   1.381e+00   2.286e+00   9.059e-01
Mtg(g)             2.61   4.085e+02  0.661   1.626e+01   1.627e+01   2.995e-03

-----------------------------Solution composition------------------------------

	Elements           Molality       Moles

	C                 2.648e-01   2.648e-01
	Mtg               2.312e-01   2.312e-01

----------------------------Description of solution----------------------------

                                       pH  =   3.358      Charge balance
                                       pe  =  15.423      Adjusted to redox equilibrium
       Specific Conductance (µS/cm, 25°C)  = 174
                          Density (g/cm³)  =   1.01589
                               Volume (L)  =   0.99948
                        Activity of water  =   0.992
                           Ionic strength  =   4.489e-04
                       Mass of water (kg)  =   1.000e+00
                 Total alkalinity (eq/kg)  =   1.219e-09
                       Total CO2 (mol/kg)  =   2.648e-01
                         Temperature (°C)  =  25.00
                           Pressure (atm)  = 465.90
                  Electrical balance (eq)  =  -1.219e-09
 Percent error, 100*(Cat-|An|)/(Cat+|An|)  =  -0.00
                               Iterations  =  14
                                  Total H  = 1.110124e+02
                                  Total O  = 5.603589e+01

----------------------------Distribution of species----------------------------

                                               Log       Log       Log    mole V
   Species          Molality    Activity  Molality  Activity     Gamma   cm³/mol

   H+              4.489e-04   4.387e-04    -3.348    -3.358    -0.010      0.00
   OH-             3.446e-11   3.365e-11   -10.463   -10.473    -0.010     -2.60
   H2O             5.551e+01   9.916e-01     1.744    -0.004     0.000     17.71
C(-4)         0.000e+00
   CH4             0.000e+00   0.000e+00  -126.738  -126.738     0.000     35.98
C(4)          2.648e-01
   CO2             2.619e-01   2.619e-01    -0.582    -0.582     0.000     34.22
   (CO2)2          1.259e-03   1.259e-03    -2.900    -2.900     0.000     68.43
   HCO3-           4.489e-04   4.385e-04    -3.348    -3.358    -0.010     25.08
   CO3-2           8.535e-11   7.771e-11   -10.069   -10.110    -0.041     -1.52
H(0)          0.000e+00
   H2              0.000e+00   0.000e+00   -40.946   -40.946     0.000     28.41
Mtg           2.312e-01
   Mtg             2.312e-01   2.312e-01    -0.636    -0.636     0.000     32.22
O(0)          2.419e-11
   O2              1.210e-11   1.210e-11   -10.917   -10.917     0.000     29.80

------------------------------Saturation indices-------------------------------

  Phase               SI** log IAP   log K(298 K, 466 atm)

  CH4(g)         -123.64   -126.74   -3.10  CH4
  CO2(g)            1.17     -0.58   -1.75  CO2	 Pressure  57.4 atm, phi 0.257
  H2(g)           -37.61    -40.95   -3.34  H2
  H2O(g)           -1.36     -0.00    1.36  H2O
  Mtg(g)            2.43     -0.64   -3.07  Mtg	 Pressure 408.5 atm, phi 0.661
  O2(g)            -7.78    -10.92   -3.14  O2

**For a gas, SI = log10(fugacity). Fugacity = pressure * phi / 1 atm.
  For ideal gases, phi = 1.

Reaction step 9.

WARNING: Numerical method failed, switching to numerical derivatives.
WARNING: Maximum iterations exceeded, 100

WARNING: Numerical method failed with this set of convergence parameters.

WARNING: Trying smaller step size, pe step size 10, 5 ... 

Using solution 1.	pH 7 charge
Using gas phase 6.	
Using reaction 1.	

Reaction 1.	

	  1.000e+00 moles of the following reaction have been added:

	                 Relative
	Reactant            moles

	CO2                  1.00000

	                 Relative
	Element             moles
	C                    1.00000
	O                    2.00000

----------------------------------User print-----------------------------------

          25   4.2276e+02   6.6892e-01 

-----------------------------------Gas phase-----------------------------------

Total pressure: 505.97      atmospheres          (Peng-Robinson calculation)
    Gas volume:   1.00e+00 liters
  Molar volume:   5.14e-02 liters/mole
   P * Vm / RT:  1.06218  (Compressibility Factor Z) 

                                                        Moles in gas
                                            ----------------------------------
Component         log P           P    phi     Initial       Final       Delta

CO2(g)             1.92   8.321e+01  0.246   2.286e+00   3.202e+00   9.156e-01
Mtg(g)             2.63   4.228e+02  0.669   1.627e+01   1.627e+01   1.667e-03

-----------------------------Solution composition------------------------------

	Elements           Molality       Moles

	C                 3.493e-01   3.493e-01
	Mtg               2.295e-01   2.295e-01

----------------------------Description of solution----------------------------

                                       pH  =   3.289      Charge balance
                                       pe  =  15.491      Adjusted to redox equilibrium
       Specific Conductance (µS/cm, 25°C)  = 204
                          Density (g/cm³)  =   1.01834
                               Volume (L)  =   1.00070
                        Activity of water  =   0.990
                           Ionic strength  =   5.263e-04
                       Mass of water (kg)  =   1.000e+00
                 Total alkalinity (eq/kg)  =   1.219e-09
                       Total CO2 (mol/kg)  =   3.493e-01
                         Temperature (°C)  =  25.00
                           Pressure (atm)  = 505.97
                  Electrical balance (eq)  =  -1.219e-09
 Percent error, 100*(Cat-|An|)/(Cat+|An|)  =  -0.00
                               Iterations  =  18
                                  Total H  = 1.110124e+02
                                  Total O  = 5.620473e+01

----------------------------Distribution of species----------------------------

                                               Log       Log       Log    mole V
   Species          Molality    Activity  Molality  Activity     Gamma   cm³/mol

   H+              5.263e-04   5.135e-04    -3.279    -3.289    -0.011      0.00
   OH-             3.036e-11   2.959e-11   -10.518   -10.529    -0.011     -2.49
   H2O             5.551e+01   9.902e-01     1.744    -0.004     0.000     17.68
C(-4)         0.000e+00
   CH4             0.000e+00   0.000e+00  -126.640  -126.640     0.000     36.02
C(4)          3.493e-01
   CO2             3.444e-01   3.444e-01    -0.463    -0.463     0.000     34.20
   (CO2)2          2.177e-03   2.177e-03    -2.662    -2.662     0.000     68.40
   HCO3-           5.263e-04   5.132e-04    -3.279    -3.290    -0.011     25.11
   CO3-2           8.933e-11   8.073e-11   -10.049   -10.093    -0.044     -1.23
H(0)          0.000e+00
   H2              0.000e+00   0.000e+00   -40.965   -40.965     0.000     28.40
Mtg           2.295e-01
   Mtg             2.295e-01   2.295e-01    -0.639    -0.639     0.000     32.22
O(0)          2.420e-11
   O2              1.210e-11   1.210e-11   -10.917   -10.917     0.000     29.76

------------------------------Saturation indices-------------------------------

  Phase               SI** log IAP   log K(298 K, 506 atm)

  CH4(g)         -123.51   -126.64   -3.12  CH4
  CO2(g)            1.31     -0.46   -1.77  CO2	 Pressure  83.2 atm, phi 0.246
  H2(g)           -37.61    -40.97   -3.36  H2
  H2O(g)           -1.35     -0.00    1.34  H2O
  Mtg(g)            2.45     -0.64   -3.09  Mtg	 Pressure 422.8 atm, phi 0.669
  O2(g)            -7.76    -10.92   -3.16  O2

**For a gas, SI = log10(fugacity). Fugacity = pressure * phi / 1 atm.
  For ideal gases, phi = 1.

Reaction step 10.

WARNING: Numerical method failed, switching to numerical derivatives.
WARNING: Maximum iterations exceeded, 100

WARNING: Numerical method failed with this set of convergence parameters.

WARNING: Trying smaller step size, pe step size 10, 5 ... 

Using solution 1.	pH 7 charge
Using gas phase 6.	
Using reaction 1.	

Reaction 1.	

	  1.000e+00 moles of the following reaction have been added:

	                 Relative
	Reactant            moles

	CO2                  1.00000

	                 Relative
	Element             moles
	C                    1.00000
	O                    2.00000

----------------------------------User print-----------------------------------

          25   4.4172e+02   6.8059e-01 

-----------------------------------Gas phase-----------------------------------

Total pressure: 553.73      atmospheres          (Peng-Robinson calculation)
    Gas volume:   1.00e+00 liters
  Molar volume:   4.90e-02 liters/mole
   P * Vm / RT:  1.10978  (Compressibility Factor Z) 

                                                        Moles in gas
                                            ----------------------------------
Component         log P           P    phi     Initial       Final       Delta

CO2(g)             2.05   1.120e+02  0.238   3.202e+00   4.125e+00   9.233e-01
Mtg(g)             2.65   4.417e+02  0.681   1.627e+01   1.627e+01   3.984e-04

-----------------------------Solution composition------------------------------

	Elements           Molality       Moles

	C                 4.259e-01   4.259e-01
	Mtg               2.291e-01   2.291e-01

----------------------------Description of solution----------------------------

                                       pH  =   3.236      Charge balance
                                       pe  =  15.543      Adjusted to redox equilibrium
       Specific Conductance (µS/cm, 25°C)  = 231
                          Density (g/cm³)  =   1.02098
                               Volume (L)  =   1.00141
                        Activity of water  =   0.989
                           Ionic strength  =   5.957e-04
                       Mass of water (kg)  =   1.000e+00
                 Total alkalinity (eq/kg)  =   1.218e-09
                       Total CO2 (mol/kg)  =   4.259e-01
                         Temperature (°C)  =  25.00
                           Pressure (atm)  = 553.73
                  Electrical balance (eq)  =  -1.218e-09
 Percent error, 100*(Cat-|An|)/(Cat+|An|)  =  -0.00
                               Iterations  =  19
                                  Total H  = 1.110124e+02
                                  Total O  = 5.635809e+01

----------------------------Distribution of species----------------------------

                                               Log       Log       Log    mole V
   Species          Molality    Activity  Molality  Activity     Gamma   cm³/mol

   H+              5.957e-04   5.804e-04    -3.225    -3.236    -0.011      0.00
   OH-             2.784e-11   2.710e-11   -10.555   -10.567    -0.012     -2.35
   H2O             5.551e+01   9.889e-01     1.744    -0.005     0.000     17.65
C(-4)         0.000e+00
   CH4             0.000e+00   0.000e+00  -126.578  -126.578     0.000     36.06
C(4)          4.259e-01
   CO2             4.189e-01   4.190e-01    -0.378    -0.378     0.000     34.18
   (CO2)2          3.221e-03   3.222e-03    -2.492    -2.492     0.000     68.36
   HCO3-           5.957e-04   5.800e-04    -3.225    -3.237    -0.012     25.15
   CO3-2           9.396e-11   8.442e-11   -10.027   -10.074    -0.047     -0.90
H(0)          0.000e+00
   H2              0.000e+00   0.000e+00   -40.987   -40.987     0.000     28.38
Mtg           2.291e-01
   Mtg             2.291e-01   2.291e-01    -0.640    -0.640     0.000     32.22
O(0)          2.421e-11
   O2              1.211e-11   1.211e-11   -10.917   -10.917     0.000     29.71

------------------------------Saturation indices-------------------------------

  Phase               SI** log IAP   log K(298 K, 554 atm)

  CH4(g)         -123.42   -126.58   -3.16  CH4
  CO2(g)            1.43     -0.38   -1.80  CO2	 Pressure 112.0 atm, phi 0.238
  H2(g)           -37.61    -40.99   -3.38  H2
  H2O(g)           -1.33     -0.00    1.33  H2O
  Mtg(g)            2.48     -0.64   -3.12  Mtg	 Pressure 441.7 atm, phi 0.681
  O2(g)            -7.73    -10.92   -3.18  O2

**For a gas, SI = log10(fugacity). Fugacity = pressure * phi / 1 atm.
  For ideal gases, phi = 1.

Reaction step 11.

WARNING: Numerical method failed, switching to numerical derivatives.
WARNING: Maximum iterations exceeded, 100

WARNING: Numerical method failed with this set of convergence parameters.

WARNING: Trying smaller step size, pe step size 10, 5 ... 

Using solution 1.	pH 7 charge
Using gas phase 6.	
Using reaction 1.	

Reaction 1.	

	  1.000e+00 moles of the following reaction have been added:

	                 Relative
	Reactant            moles

	CO2                  1.00000

	                 Relative
	Element             moles
	C                    1.00000
	O                    2.00000

----------------------------------User print-----------------------------------

          25   4.6614e+02   6.9794e-01 

-----------------------------------Gas phase-----------------------------------

Total pressure: 610.98      atmospheres          (Peng-Robinson calculation)
    Gas volume:   1.00e+00 liters
  Molar volume:   4.69e-02 liters/mole
   P * Vm / RT:  1.17119  (Compressibility Factor Z) 

                                                        Moles in gas
                                            ----------------------------------
Component         log P           P    phi     Initial       Final       Delta

CO2(g)             2.16   1.448e+02  0.232   4.125e+00   5.055e+00   9.294e-01
Mtg(g)             2.67   4.661e+02  0.698   1.627e+01   1.627e+01  -8.194e-04

-----------------------------Solution composition------------------------------

	Elements           Molality       Moles

	C                 4.965e-01   4.965e-01
	Mtg               2.299e-01   2.299e-01

----------------------------Description of solution----------------------------

                                       pH  =   3.191      Charge balance
                                       pe  =  15.588      Adjusted to redox equilibrium
       Specific Conductance (µS/cm, 25°C)  = 257
                          Density (g/cm³)  =   1.02390
                               Volume (L)  =   1.00160
                        Activity of water  =   0.988
                           Ionic strength  =   6.623e-04
                       Mass of water (kg)  =   1.000e+00
                 Total alkalinity (eq/kg)  =   1.218e-09
                       Total CO2 (mol/kg)  =   4.965e-01
                         Temperature (°C)  =  25.00
                           Pressure (atm)  = 610.98
                  Electrical balance (eq)  =  -1.218e-09
 Percent error, 100*(Cat-|An|)/(Cat+|An|)  =  -0.00
                               Iterations  =  17
                                  Total H  = 1.110124e+02
                                  Total O  = 5.649921e+01

----------------------------Distribution of species----------------------------

                                               Log       Log       Log    mole V
   Species          Molality    Activity  Molality  Activity     Gamma   cm³/mol

   H+              6.623e-04   6.445e-04    -3.179    -3.191    -0.012      0.00
   OH-             2.615e-11   2.542e-11   -10.582   -10.595    -0.012     -2.20
   H2O             5.551e+01   9.877e-01     1.744    -0.005     0.000     17.61
C(-4)         0.000e+00
   CH4             0.000e+00   0.000e+00  -126.541  -126.541     0.000     36.11
C(4)          4.965e-01
   CO2             4.871e-01   4.872e-01    -0.312    -0.312     0.000     34.15
   (CO2)2          4.356e-03   4.357e-03    -2.361    -2.361     0.000     68.31
   HCO3-           6.623e-04   6.440e-04    -3.179    -3.191    -0.012     25.20
   CO3-2           9.953e-11   8.895e-11   -10.002   -10.051    -0.049     -0.51
H(0)          0.000e+00
   H2              0.000e+00   0.000e+00   -41.014   -41.014     0.000     28.37
Mtg           2.299e-01
   Mtg             2.299e-01   2.300e-01    -0.638    -0.638     0.000     32.22
O(0)          2.421e-11
   O2              1.211e-11   1.211e-11   -10.917   -10.917     0.000     29.65

------------------------------Saturation indices-------------------------------

  Phase               SI** log IAP   log K(298 K, 611 atm)

  CH4(g)         -123.35   -126.54   -3.19  CH4
  CO2(g)            1.53     -0.31   -1.84  CO2	 Pressure 144.8 atm, phi 0.232
  H2(g)           -37.61    -41.01   -3.41  H2
  H2O(g)           -1.32     -0.01    1.31  H2O
  Mtg(g)            2.51     -0.64   -3.15  Mtg	 Pressure 466.1 atm, phi 0.698
  O2(g)            -7.70    -10.92   -3.21  O2

**For a gas, SI = log10(fugacity). Fugacity = pressure * phi / 1 atm.
  For ideal gases, phi = 1.

Reaction step 12.

WARNING: Numerical method failed, switching to numerical derivatives.
WARNING: Maximum iterations exceeded, 100

WARNING: Numerical method failed with this set of convergence parameters.

WARNING: Trying smaller step size, pe step size 10, 5 ... 

Using solution 1.	pH 7 charge
Using gas phase 6.	
Using reaction 1.	

Reaction 1.	

	  1.000e+00 moles of the following reaction have been added:

	                 Relative
	Reactant            moles

	CO2                  1.00000

	                 Relative
	Element             moles
	C                    1.00000
	O                    2.00000

----------------------------------User print-----------------------------------

          25   4.9697e+02   7.2311e-01 

-----------------------------------Gas phase-----------------------------------

Total pressure: 679.96      atmospheres          (Peng-Robinson calculation)
    Gas volume:   1.00e+00 liters
  Molar volume:   4.49e-02 liters/mole
   P * Vm / RT:  1.24881  (Compressibility Factor Z) 

                                                        Moles in gas
                                            ----------------------------------
Component         log P           P    phi     Initial       Final       Delta

CO2(g)             2.26   1.830e+02  0.228   5.055e+00   5.989e+00   9.342e-01
Mtg(g)             2.70   4.970e+02  0.723   1.627e+01   1.627e+01  -1.993e-03

-----------------------------Solution composition------------------------------

	Elements           Molality       Moles

	C                 5.623e-01   5.623e-01
	Mtg               2.319e-01   2.319e-01

----------------------------Description of solution----------------------------

                                       pH  =   3.149      Charge balance
                                       pe  =  15.628      Adjusted to redox equilibrium
       Specific Conductance (µS/cm, 25°C)  = 283
                          Density (g/cm³)  =   1.02718
                               Volume (L)  =   1.00125
                        Activity of water  =   0.987
                           Ionic strength  =   7.300e-04
                       Mass of water (kg)  =   1.000e+00
                 Total alkalinity (eq/kg)  =   1.218e-09
                       Total CO2 (mol/kg)  =   5.623e-01
                         Temperature (°C)  =  25.00
                           Pressure (atm)  = 679.96
                  Electrical balance (eq)  =  -1.218e-09
 Percent error, 100*(Cat-|An|)/(Cat+|An|)  =  -0.00
                               Iterations  =  23
                                  Total H  = 1.110124e+02
                                  Total O  = 5.663075e+01

----------------------------Distribution of species----------------------------

                                               Log       Log       Log    mole V
   Species          Molality    Activity  Molality  Activity     Gamma   cm³/mol

   H+              7.300e-04   7.095e-04    -3.137    -3.149    -0.012      0.00
   OH-             2.497e-11   2.423e-11   -10.603   -10.616    -0.013     -2.02
   H2O             5.551e+01   9.866e-01     1.744    -0.006     0.000     17.56
C(-4)         0.000e+00
   CH4             0.000e+00   0.000e+00  -126.521  -126.521     0.000     36.16
C(4)          5.623e-01
   CO2             5.504e-01   5.505e-01    -0.259    -0.259     0.000     34.12
   (CO2)2          5.562e-03   5.563e-03    -2.255    -2.255     0.000     68.25
   HCO3-           7.300e-04   7.089e-04    -3.137    -3.149    -0.013     25.25
   CO3-2           1.064e-10   9.457e-11    -9.973   -10.024    -0.051     -0.06
H(0)          0.000e+00
   H2              0.000e+00   0.000e+00   -41.046   -41.046     0.000     28.34
Mtg           2.319e-01
   Mtg             2.319e-01   2.319e-01    -0.635    -0.635     0.000     32.22
O(0)          2.422e-11
   O2              1.211e-11   1.211e-11   -10.917   -10.917     0.000     29.58

------------------------------Saturation indices-------------------------------

  Phase               SI** log IAP   log K(298 K, 680 atm)

  CH4(g)         -123.28   -126.52   -3.24  CH4
  CO2(g)            1.62     -0.26   -1.88  CO2	 Pressure 183.0 atm, phi 0.228
  H2(g)           -37.60    -41.05   -3.44  H2
  H2O(g)           -1.30     -0.01    1.29  H2O
  Mtg(g)            2.56     -0.63   -3.19  Mtg	 Pressure 497.0 atm, phi 0.723
  O2(g)            -7.67    -10.92   -3.25  O2

**For a gas, SI = log10(fugacity). Fugacity = pressure * phi / 1 atm.
  For ideal gases, phi = 1.

Reaction step 13.

WARNING: Numerical method failed, switching to numerical derivatives.
WARNING: Maximum iterations exceeded, 100

WARNING: Numerical method failed with this set of convergence parameters.

WARNING: Trying smaller step size, pe step size 10, 5 ... 

Using solution 1.	pH 7 charge
Using gas phase 6.	
Using reaction 1.	

Reaction 1.	

	  1.000e+00 moles of the following reaction have been added:

	                 Relative
	Reactant            moles

	CO2                  1.00000

	                 Relative
	Element             moles
	C                    1.00000
	O                    2.00000

----------------------------------User print-----------------------------------

          25   5.3544e+02   7.5932e-01 

-----------------------------------Gas phase-----------------------------------

Total pressure: 763.51      atmospheres          (Peng-Robinson calculation)
    Gas volume:   1.00e+00 liters
  Molar volume:   4.31e-02 liters/mole
   P * Vm / RT:  1.34573  (Compressibility Factor Z) 

                                                        Moles in gas
                                            ----------------------------------
Component         log P           P    phi     Initial       Final       Delta

CO2(g)             2.36   2.281e+02  0.227   5.989e+00   6.927e+00   9.380e-01
Mtg(g)             2.73   5.354e+02  0.759   1.627e+01   1.626e+01  -3.123e-03

-----------------------------Solution composition------------------------------

	Elements           Molality       Moles

	C                 6.243e-01   6.243e-01
	Mtg               2.350e-01   2.350e-01

----------------------------Description of solution----------------------------

                                       pH  =   3.108      Charge balance
                                       pe  =  15.667      Adjusted to redox equilibrium
       Specific Conductance (µS/cm, 25°C)  = 310
                          Density (g/cm³)  =   1.03093
                               Volume (L)  =   1.00030
                        Activity of water  =   0.985
                           Ionic strength  =   8.025e-04
                       Mass of water (kg)  =   1.000e+00
                 Total alkalinity (eq/kg)  =   1.218e-09
                       Total CO2 (mol/kg)  =   6.243e-01
                         Temperature (°C)  =  25.00
                           Pressure (atm)  = 763.51
                  Electrical balance (eq)  =  -1.218e-09
 Percent error, 100*(Cat-|An|)/(Cat+|An|)  =  -0.00
                               Iterations  =  21
                                  Total H  = 1.110124e+02
                                  Total O  = 5.675478e+01

----------------------------Distribution of species----------------------------

                                               Log       Log       Log    mole V
   Species          Molality    Activity  Molality  Activity     Gamma   cm³/mol

   H+              8.025e-04   7.791e-04    -3.096    -3.108    -0.013      0.00
   OH-             2.412e-11   2.338e-11   -10.618   -10.631    -0.014     -1.82
   H2O             5.551e+01   9.855e-01     1.744    -0.006     0.000     17.50
C(-4)         0.000e+00
   CH4             0.000e+00   0.000e+00  -126.517  -126.517     0.000     36.22
C(4)          6.243e-01
   CO2             6.098e-01   6.099e-01    -0.215    -0.215     0.000     34.09
   (CO2)2          6.827e-03   6.829e-03    -2.166    -2.166     0.000     68.17
   HCO3-           8.025e-04   7.783e-04    -3.096    -3.109    -0.013     25.31
   CO3-2           1.148e-10   1.016e-10    -9.940    -9.993    -0.053      0.47
H(0)          0.000e+00
   H2              0.000e+00   0.000e+00   -41.084   -41.084     0.000     28.32
Mtg           2.350e-01
   Mtg             2.350e-01   2.351e-01    -0.629    -0.629     0.000     32.22
O(0)          2.421e-11
   O2              1.210e-11   1.211e-11   -10.917   -10.917     0.000     29.50

------------------------------Saturation indices-------------------------------

  Phase               SI** log IAP   log K(298 K, 764 atm)

  CH4(g)         -123.22   -126.52   -3.29  CH4
  CO2(g)            1.71     -0.21   -1.93  CO2	 Pressure 228.1 atm, phi 0.227
  H2(g)           -37.60    -41.08   -3.48  H2
  H2O(g)           -1.27     -0.01    1.27  H2O
  Mtg(g)            2.61     -0.63   -3.24  Mtg	 Pressure 535.4 atm, phi 0.759
  O2(g)            -7.63    -10.92   -3.29  O2

**For a gas, SI = log10(fugacity). Fugacity = pressure * phi / 1 atm.
  For ideal gases, phi = 1.

Reaction step 14.

WARNING: Numerical method failed, switching to numerical derivatives.
WARNING: Maximum iterations exceeded, 100

WARNING: Numerical method failed with this set of convergence parameters.

WARNING: Trying smaller step size, pe step size 10, 5 ... 

Using solution 1.	pH 7 charge
Using gas phase 6.	
Using reaction 1.	

Reaction 1.	

	  1.000e+00 moles of the following reaction have been added:

	                 Relative
	Reactant            moles

	CO2                  1.00000

	                 Relative
	Element             moles
	C                    1.00000
	O                    2.00000

----------------------------------User print-----------------------------------

          25   5.8310e+02   8.1152e-01 

-----------------------------------Gas phase-----------------------------------

Total pressure: 865.28      atmospheres          (Peng-Robinson calculation)
    Gas volume:   1.00e+00 liters
  Molar volume:   4.14e-02 liters/mole
   P * Vm / RT:  1.46589  (Compressibility Factor Z) 

                                                        Moles in gas
                                            ----------------------------------
Component         log P           P    phi     Initial       Final       Delta

CO2(g)             2.45   2.822e+02  0.231   6.927e+00   7.868e+00   9.410e-01
Mtg(g)             2.77   5.831e+02  0.812   1.626e+01   1.626e+01  -4.204e-03

-----------------------------Solution composition------------------------------

	Elements           Molality       Moles

	C                 6.833e-01   6.833e-01
	Mtg               2.392e-01   2.392e-01

----------------------------Description of solution----------------------------

                                       pH  =   3.067      Charge balance
                                       pe  =  15.706      Adjusted to redox equilibrium
       Specific Conductance (µS/cm, 25°C)  = 341
                          Density (g/cm³)  =   1.03527
                               Volume (L)  =   0.99868
                        Activity of water  =   0.984
                           Ionic strength  =   8.836e-04
                       Mass of water (kg)  =   1.000e+00
                 Total alkalinity (eq/kg)  =   1.218e-09
                       Total CO2 (mol/kg)  =   6.833e-01
                         Temperature (°C)  =  25.00
                           Pressure (atm)  = 865.28
                  Electrical balance (eq)  =  -1.218e-09
 Percent error, 100*(Cat-|An|)/(Cat+|An|)  =  -0.00
                               Iterations  =  23
                                  Total H  = 1.110124e+02
                                  Total O  = 5.687277e+01

----------------------------Distribution of species----------------------------

                                               Log       Log       Log    mole V
   Species          Molality    Activity  Molality  Activity     Gamma   cm³/mol

   H+              8.836e-04   8.568e-04    -3.054    -3.067    -0.013      0.00
   OH-             2.351e-11   2.276e-11   -10.629   -10.643    -0.014     -1.58
   H2O             5.551e+01   9.844e-01     1.744    -0.007     0.000     17.43
C(-4)         0.000e+00
   CH4             0.000e+00   0.000e+00  -126.527  -126.527     0.000     36.29
C(4)          6.833e-01
   CO2             6.661e-01   6.662e-01    -0.176    -0.176     0.000     34.04
   (CO2)2          8.146e-03   8.148e-03    -2.089    -2.089     0.000     68.09
   HCO3-           8.836e-04   8.559e-04    -3.054    -3.068    -0.014     25.39
   CO3-2           1.256e-10   1.105e-10    -9.901    -9.957    -0.055      1.09
H(0)          0.000e+00
   H2              0.000e+00   0.000e+00   -41.130   -41.130     0.000     28.29
Mtg           2.392e-01
   Mtg             2.392e-01   2.393e-01    -0.621    -0.621     0.000     32.22
O(0)          2.420e-11
   O2              1.210e-11   1.210e-11   -10.917   -10.917     0.000     29.40

------------------------------Saturation indices-------------------------------

  Phase               SI** log IAP   log K(298 K, 865 atm)

  CH4(g)         -123.17   -126.53   -3.36  CH4
  CO2(g)            1.81     -0.18   -1.99  CO2	 Pressure 282.2 atm, phi 0.231
  H2(g)           -37.60    -41.13   -3.54  H2
  H2O(g)           -1.24     -0.01    1.24  H2O
  Mtg(g)            2.68     -0.62   -3.30  Mtg	 Pressure 583.1 atm, phi 0.812
  O2(g)            -7.57    -10.92   -3.34  O2

**For a gas, SI = log10(fugacity). Fugacity = pressure * phi / 1 atm.
  For ideal gases, phi = 1.

Reaction step 15.

WARNING: Numerical method failed, switching to numerical derivatives.
WARNING: Maximum iterations exceeded, 100

WARNING: Numerical method failed with this set of convergence parameters.

WARNING: Trying smaller step size, pe step size 10, 5 ... 

Using solution 1.	pH 7 charge
Using gas phase 6.	
Using reaction 1.	

Reaction 1.	

	  1.000e+00 moles of the following reaction have been added:

	                 Relative
	Reactant            moles

	CO2                  1.00000

	                 Relative
	Element             moles
	C                    1.00000
	O                    2.00000

----------------------------------User print-----------------------------------

          25   6.4200e+02   8.8765e-01 

-----------------------------------Gas phase-----------------------------------

Total pressure: 990.06      atmospheres          (Peng-Robinson calculation)
    Gas volume:   1.00e+00 liters
  Molar volume:   3.99e-02 liters/mole
   P * Vm / RT:  1.61450  (Compressibility Factor Z) 

                                                        Moles in gas
                                            ----------------------------------
Component         log P           P    phi     Initial       Final       Delta

CO2(g)             2.54   3.481e+02  0.240   7.868e+00   8.812e+00   9.436e-01
Mtg(g)             2.81   6.420e+02  0.888   1.626e+01   1.625e+01  -5.216e-03

-----------------------------Solution composition------------------------------

	Elements           Molality       Moles

	C                 7.397e-01   7.397e-01
	Mtg               2.445e-01   2.444e-01

----------------------------Description of solution----------------------------

                                       pH  =   3.024      Charge balance
                                       pe  =  15.747      Adjusted to redox equilibrium
       Specific Conductance (µS/cm, 25°C)  = 376
                          Density (g/cm³)  =   1.04035
                               Volume (L)  =   0.99627
                        Activity of water  =   0.983
                           Ionic strength  =   9.782e-04
                       Mass of water (kg)  =   1.000e+00
                 Total alkalinity (eq/kg)  =   1.218e-09
                       Total CO2 (mol/kg)  =   7.397e-01
                         Temperature (°C)  =  25.00
                           Pressure (atm)  = 990.06
                  Electrical balance (eq)  =  -1.218e-09
 Percent error, 100*(Cat-|An|)/(Cat+|An|)  =  -0.00
                               Iterations  =  26
                                  Total H  = 1.110124e+02
                                  Total O  = 5.698561e+01

----------------------------Distribution of species----------------------------

                                               Log       Log       Log    mole V
   Species          Molality    Activity  Molality  Activity     Gamma   cm³/mol

   H+              9.782e-04   9.472e-04    -3.010    -3.024    -0.014      0.00
   OH-             2.311e-11   2.234e-11   -10.636   -10.651    -0.015     -1.30
   H2O             5.551e+01   9.834e-01     1.744    -0.007     0.000     17.35
C(-4)         0.000e+00
   CH4             0.000e+00   0.000e+00  -126.554  -126.554     0.000     36.37
C(4)          7.397e-01
   CO2             7.197e-01   7.199e-01    -0.143    -0.143     0.000     33.99
   (CO2)2          9.510e-03   9.512e-03    -2.022    -2.022     0.000     67.98
   HCO3-           9.782e-04   9.462e-04    -3.010    -3.024    -0.014     25.47
   CO3-2           1.393e-10   1.220e-10    -9.856    -9.914    -0.058      1.80
H(0)          0.000e+00
   H2              0.000e+00   0.000e+00   -41.187   -41.187     0.000     28.26
Mtg           2.445e-01
   Mtg             2.445e-01   2.445e-01    -0.612    -0.612     0.000     32.22
O(0)          2.420e-11
   O2              1.210e-11   1.210e-11   -10.917   -10.917     0.000     29.30

------------------------------Saturation indices-------------------------------

  Phase               SI** log IAP   log K(298 K, 990 atm)

  CH4(g)         -123.11   -126.55   -3.44  CH4
  CO2(g)            1.92     -0.14   -2.06  CO2	 Pressure 348.1 atm, phi 0.240
  H2(g)           -37.59    -41.19   -3.60  H2
  H2O(g)           -1.21     -0.01    1.20  H2O
  Mtg(g)            2.76     -0.61   -3.37  Mtg	 Pressure 642.0 atm, phi 0.888
  O2(g)            -7.51    -10.92   -3.41  O2

**For a gas, SI = log10(fugacity). Fugacity = pressure * phi / 1 atm.
  For ideal gases, phi = 1.

Reaction step 16.

WARNING: Numerical method failed, switching to numerical derivatives.
WARNING: Maximum iterations exceeded, 100

WARNING: Numerical method failed with this set of convergence parameters.

WARNING: Trying smaller step size, pe step size 10, 5 ... 

Using solution 1.	pH 7 charge
Using gas phase 6.	
Using reaction 1.	

Reaction 1.	

	  1.000e+00 moles of the following reaction have been added:

	                 Relative
	Reactant            moles

	CO2                  1.00000

	                 Relative
	Element             moles
	C                    1.00000
	O                    2.00000

----------------------------------User print-----------------------------------

          25   7.1493e+02   1.0011e+00 

-----------------------------------Gas phase-----------------------------------

Total pressure: 1144.30      atmospheres          (Peng-Robinson calculation)
    Gas volume:   1.00e+00 liters
  Molar volume:   3.85e-02 liters/mole
   P * Vm / RT:  1.79856  (Compressibility Factor Z) 

                                                        Moles in gas
                                            ----------------------------------
Component         log P           P    phi     Initial       Final       Delta

CO2(g)             2.63   4.294e+02  0.258   8.812e+00   9.758e+00   9.461e-01
Mtg(g)             2.85   7.149e+02  1.001   1.625e+01   1.625e+01  -6.118e-03

-----------------------------Solution composition------------------------------

	Elements           Molality       Moles

	C                 7.936e-01   7.936e-01
	Mtg               2.506e-01   2.506e-01

----------------------------Description of solution----------------------------

                                       pH  =   2.976      Charge balance
                                       pe  =  15.791      Adjusted to redox equilibrium
       Specific Conductance (µS/cm, 25°C)  = 419
                          Density (g/cm³)  =   1.04641
                               Volume (L)  =   0.99286
                        Activity of water  =   0.982
                           Ionic strength  =   1.093e-03
                       Mass of water (kg)  =   1.000e+00
                 Total alkalinity (eq/kg)  =   1.218e-09
                       Total CO2 (mol/kg)  =   7.936e-01
                         Temperature (°C)  =  25.00
                           Pressure (atm)  = 1144.30
                  Electrical balance (eq)  =  -1.218e-09
 Percent error, 100*(Cat-|An|)/(Cat+|An|)  =  -0.00
                               Iterations  =  50
                                  Total H  = 1.110124e+02
                                  Total O  = 5.709343e+01

----------------------------Distribution of species----------------------------

                                               Log       Log       Log    mole V
   Species          Molality    Activity  Molality  Activity     Gamma   cm³/mol

   H+              1.093e-03   1.057e-03    -2.961    -2.976    -0.015      0.00
   OH-             2.286e-11   2.206e-11   -10.641   -10.656    -0.015     -0.98
   H2O             5.551e+01   9.824e-01     1.744    -0.008     0.000     17.26
C(-4)         0.000e+00
   CH4             0.000e+00   0.000e+00  -126.599  -126.599     0.000     36.45
C(4)          7.936e-01
   CO2             7.707e-01   7.709e-01    -0.113    -0.113     0.000     33.93
   (CO2)2          1.091e-02   1.091e-02    -1.962    -1.962     0.000     67.86
   HCO3-           1.093e-03   1.055e-03    -2.961    -2.977    -0.015     25.57
   CO3-2           1.573e-10   1.368e-10    -9.803    -9.864    -0.061      2.63
H(0)          0.000e+00
   H2              0.000e+00   0.000e+00   -41.258   -41.258     0.000     28.22
Mtg           2.506e-01
   Mtg             2.506e-01   2.506e-01    -0.601    -0.601     0.000     32.22
O(0)          2.420e-11
   O2              1.210e-11   1.210e-11   -10.917   -10.917     0.000     29.18

------------------------------Saturation indices-------------------------------

  Phase               SI** log IAP   log K(298 K, 1144 atm)

  CH4(g)         -123.06   -126.60   -3.54  CH4
  CO2(g)            2.04     -0.11   -2.16  CO2	 Pressure 429.4 atm, phi 0.258
  H2(g)           -37.58    -41.26   -3.67  H2
  H2O(g)           -1.16     -0.01    1.15  H2O
  Mtg(g)            2.85     -0.60   -3.46  Mtg	 Pressure 714.9 atm, phi 1.001
  O2(g)            -7.43    -10.92   -3.48  O2

**For a gas, SI = log10(fugacity). Fugacity = pressure * phi / 1 atm.
  For ideal gases, phi = 1.

Reaction step 17.

WARNING: Numerical method failed, switching to numerical derivatives.
WARNING: Maximum iterations exceeded, 100

WARNING: Numerical method failed with this set of convergence parameters.

WARNING: Trying smaller step size, pe step size 10, 5 ... 

Using solution 1.	pH 7 charge
Using gas phase 6.	
Using reaction 1.	

Reaction 1.	

	  1.000e+00 moles of the following reaction have been added:

	                 Relative
	Reactant            moles

	CO2                  1.00000

	                 Relative
	Element             moles
	C                    1.00000
	O                    2.00000

----------------------------------User print-----------------------------------

          25   8.0573e+02   1.1760e+00 

-----------------------------------Gas phase-----------------------------------

Total pressure: 1336.92      atmospheres          (Peng-Robinson calculation)
    Gas volume:   1.00e+00 liters
  Molar volume:   3.71e-02 liters/mole
   P * Vm / RT:  2.02784  (Compressibility Factor Z) 

                                                        Moles in gas
                                            ----------------------------------
Component         log P           P    phi     Initial       Final       Delta

CO2(g)             2.73   5.312e+02  0.288   9.758e+00   1.071e+01   9.490e-01
Mtg(g)             2.91   8.057e+02  1.176   1.625e+01   1.624e+01  -6.834e-03

-----------------------------Solution composition------------------------------

	Elements           Molality       Moles

	C                 8.446e-01   8.446e-01
	Mtg               2.574e-01   2.574e-01

----------------------------Description of solution----------------------------

                                       pH  =   2.923      Charge balance
                                       pe  =  15.841      Adjusted to redox equilibrium
       Specific Conductance (µS/cm, 25°C)  = 471
                          Density (g/cm³)  =   1.05381
                               Volume (L)  =   0.98813
                        Activity of water  =   0.981
                           Ionic strength  =   1.237e-03
                       Mass of water (kg)  =   1.000e+00
                 Total alkalinity (eq/kg)  =   1.217e-09
                       Total CO2 (mol/kg)  =   8.446e-01
                         Temperature (°C)  =  25.00
                           Pressure (atm)  = 1336.92
                  Electrical balance (eq)  =  -1.217e-09
 Percent error, 100*(Cat-|An|)/(Cat+|An|)  =  -0.00
                               Iterations  =  38
                                  Total H  = 1.110124e+02
                                  Total O  = 5.719546e+01

----------------------------Distribution of species----------------------------

                                               Log       Log       Log    mole V
   Species          Molality    Activity  Molality  Activity     Gamma   cm³/mol

   H+              1.237e-03   1.194e-03    -2.908    -2.923    -0.015      0.00
   OH-             2.276e-11   2.192e-11   -10.643   -10.659    -0.016     -0.61
   H2O             5.551e+01   9.815e-01     1.744    -0.008     0.000     17.14
C(-4)         0.000e+00
   CH4             0.000e+00   0.000e+00  -126.667  -126.666     0.000     36.55
C(4)          8.446e-01
   CO2             8.188e-01   8.190e-01    -0.087    -0.087     0.000     33.86
   (CO2)2          1.231e-02   1.231e-02    -1.910    -1.910     0.000     67.71
   HCO3-           1.237e-03   1.192e-03    -2.908    -2.924    -0.016     25.69
   CO3-2           1.813e-10   1.565e-10    -9.742    -9.805    -0.064      3.59
H(0)          0.000e+00
   H2              0.000e+00   0.000e+00   -41.346   -41.346     0.000     28.18
Mtg           2.574e-01
   Mtg             2.574e-01   2.575e-01    -0.589    -0.589     0.000     32.22
O(0)          2.420e-11
   O2              1.210e-11   1.210e-11   -10.917   -10.917     0.000     29.04

------------------------------Saturation indices-------------------------------

  Phase               SI** log IAP   log K(298 K, 1337 atm)

  CH4(g)         -123.00   -126.67   -3.67  CH4
  CO2(g)            2.18     -0.09   -2.27  CO2	 Pressure 531.2 atm, phi 0.288
  H2(g)           -37.58    -41.35   -3.77  H2
  H2O(g)           -1.10     -0.01    1.10  H2O
  Mtg(g)            2.98     -0.59   -3.57  Mtg	 Pressure 805.7 atm, phi 1.176
  O2(g)            -7.34    -10.92   -3.58  O2

**For a gas, SI = log10(fugacity). Fugacity = pressure * phi / 1 atm.
  For ideal gases, phi = 1.

------------------
End of simulation.
------------------

------------------------------------
Reading input data for simulation 2.
------------------------------------

	SOLUTION 1
	 pH 7 charge
	 temp 50
	USER_GRAPH
	  -headings 50.oC P_total
	 10 x = PR_P("CO2(g)")
	 20 plot_xy x, PR_Phi("CO2(g)"), symbol = None, line_w 2 color = Green
	 30 if step_no > 0 then plot_xy x, gas_p, symbol = Circle, line_w 1, y_axis = 2 color = Green 
	 -end
	REACTION
	 CO2 1
	 0.01 5*0.1 12*1
	GAS_PHASE 6
	    fixed_volume
		temp 50
	    CO2(g) 1
		Mtg(g) 400
	END
-------------------------------------------
Beginning of initial solution calculations.
[...]

   H+              7.948e-04   7.696e-04    -3.100    -3.114    -0.014      0.00
   OH-             5.487e-10   5.304e-10    -9.261    -9.275    -0.015     -6.59
   H2O             5.551e+01   9.864e-01     1.744    -0.006     0.000     17.87
C(-4)         0.000e+00
   CH4             0.000e+00   0.000e+00  -103.884  -103.883     0.000     38.89
C(4)          6.293e-01
   CO2             5.850e-01   5.851e-01    -0.233    -0.233     0.000     35.82
   (CO2)2          2.178e-02   2.178e-02    -1.662    -1.662     0.000     71.64
   HCO3-           7.968e-04   7.707e-04    -3.099    -3.113    -0.014     26.87
   CO3-2           1.904e-10   1.666e-10    -9.720    -9.778    -0.058     -0.94
H(0)          1.859e-34
   H2              9.297e-35   9.298e-35   -34.032   -34.032     0.000     28.27
Mtg           1.894e-01
   Mtg             1.894e-01   1.894e-01    -0.723    -0.723     0.000     32.22
O(0)          1.392e-11
   O2              6.961e-12   6.962e-12   -11.157   -11.157     0.000     31.18

------------------------------Saturation indices-------------------------------

  Phase               SI** log IAP   log K(348 K, 820 atm)

  CH4(g)         -100.39   -103.88   -3.50  CH4
  CO2(g)            2.09     -0.23   -2.32  CO2	 Pressure 303.9 atm, phi 0.402
  H2(g)           -30.55    -34.03   -3.48  H2
  H2O(g)           -0.21     -0.01    0.20  H2O
  Mtg(g)            2.69     -0.72   -3.41  Mtg	 Pressure 516.3 atm, phi 0.952
  O2(g)            -7.67    -11.16   -3.49  O2

**For a gas, SI = log10(fugacity). Fugacity = pressure * phi / 1 atm.
  For ideal gases, phi = 1.

Reaction step 15.

WARNING: Numerical method failed, switching to numerical derivatives.
WARNING: Maximum iterations exceeded, 100

WARNING: Numerical method failed with this set of convergence parameters.

WARNING: Trying smaller step size, pe step size 10, 5 ... 

Using solution 1.	pH 7 charge
Using gas phase 6.	
Using reaction 1.	

Reaction 1.	

	  1.000e+00 moles of the following reaction have been added:

	                 Relative
	Reactant            moles

	CO2                  1.00000

	                 Relative
	Element             moles
	C                    1.00000
	O                    2.00000

----------------------------------User print-----------------------------------

          75   5.5237e+02   1.0090e+00 

-----------------------------------Gas phase-----------------------------------

Total pressure: 916.23      atmospheres          (Peng-Robinson calculation)
    Gas volume:   1.00e+00 liters
  Molar volume:   4.48e-02 liters/mole
   P * Vm / RT:  1.43811  (Compressibility Factor Z) 

                                                        Moles in gas
                                            ----------------------------------
Component         log P           P    phi     Initial       Final       Delta

CO2(g)             2.56   3.639e+02  0.410   7.915e+00   8.856e+00   9.413e-01
Mtg(g)             2.74   5.524e+02  1.009   1.345e+01   1.344e+01  -3.250e-03

-----------------------------Solution composition------------------------------

	Elements           Molality       Moles

	C                 6.880e-01   6.880e-01
	Mtg               1.926e-01   1.926e-01

----------------------------Description of solution----------------------------

                                       pH  =   3.078      Charge balance
                                       pe  =  12.092      Adjusted to redox equilibrium
       Specific Conductance (µS/cm, 75°C)  = 738
                          Density (g/cm³)  =   1.01415
                               Volume (L)  =   1.01895
                        Activity of water  =   0.985
                           Ionic strength  =   8.643e-04
                       Mass of water (kg)  =   1.000e+00
                 Total alkalinity (eq/kg)  =   1.955e-06
                       Total CO2 (mol/kg)  =   6.880e-01
                         Temperature (°C)  =  75.00
                           Pressure (atm)  = 916.23
                  Electrical balance (eq)  =  -1.955e-06
 Percent error, 100*(Cat-|An|)/(Cat+|An|)  =  -0.11
                               Iterations  =  21
                                  Total H  = 1.110124e+02
                                  Total O  = 5.688227e+01

----------------------------Distribution of species----------------------------

                                               Log       Log       Log    mole V
   Species          Molality    Activity  Molality  Activity     Gamma   cm³/mol

   H+              8.633e-04   8.350e-04    -3.064    -3.078    -0.014      0.00
   OH-             5.512e-10   5.321e-10    -9.259    -9.274    -0.015     -6.76
   H2O             5.551e+01   9.855e-01     1.744    -0.006     0.000     17.80
C(-4)         0.000e+00
   CH4             0.000e+00   0.000e+00  -103.891  -103.891     0.000     38.87
C(4)          6.880e-01
   CO2             6.357e-01   6.359e-01    -0.197    -0.197     0.000     35.70
   (CO2)2          2.572e-02   2.573e-02    -1.590    -1.590     0.000     71.40
   HCO3-           8.653e-04   8.360e-04    -3.063    -3.078    -0.015     26.99
   CO3-2           2.062e-10   1.797e-10    -9.686    -9.746    -0.060     -0.27
H(0)          1.704e-34
   H2              8.519e-35   8.521e-35   -34.070   -34.070     0.000     28.25
Mtg           1.926e-01
   Mtg             1.926e-01   1.926e-01    -0.715    -0.715     0.000     32.22
O(0)          1.393e-11
   O2              6.964e-12   6.966e-12   -11.157   -11.157     0.000     31.02

------------------------------Saturation indices-------------------------------

  Phase               SI** log IAP   log K(348 K, 916 atm)

  CH4(g)         -100.34   -103.89   -3.55  CH4
  CO2(g)            2.17     -0.20   -2.37  CO2	 Pressure 363.9 atm, phi 0.410
  H2(g)           -30.54    -34.07   -3.53  H2
  H2O(g)           -0.18     -0.01    0.18  H2O
  Mtg(g)            2.75     -0.72   -3.46  Mtg	 Pressure 552.4 atm, phi 1.009
  O2(g)            -7.63    -11.16   -3.53  O2

**For a gas, SI = log10(fugacity). Fugacity = pressure * phi / 1 atm.
  For ideal gases, phi = 1.

Reaction step 16.

WARNING: Numerical method failed, switching to numerical derivatives.
WARNING: Maximum iterations exceeded, 100

WARNING: Numerical method failed with this set of convergence parameters.

WARNING: Trying smaller step size, pe step size 10, 5 ... 

Using solution 1.	pH 7 charge
Using gas phase 6.	
Using reaction 1.	

Reaction 1.	

	  1.000e+00 moles of the following reaction have been added:

	                 Relative
	Reactant            moles

	CO2                  1.00000

	                 Relative
	Element             moles
	C                    1.00000
	O                    2.00000

----------------------------------User print-----------------------------------

          75   5.9584e+02   1.0857e+00 

-----------------------------------Gas phase-----------------------------------

Total pressure: 1030.20      atmospheres          (Peng-Robinson calculation)
    Gas volume:   1.00e+00 liters
  Molar volume:   4.30e-02 liters/mole
   P * Vm / RT:  1.55173  (Compressibility Factor Z) 

                                                        Moles in gas
                                            ----------------------------------
Component         log P           P    phi     Initial       Final       Delta

CO2(g)             2.64   4.344e+02  0.425   8.856e+00   9.798e+00   9.420e-01
Mtg(g)             2.78   5.958e+02  1.086   1.344e+01   1.344e+01  -3.993e-03

-----------------------------Solution composition------------------------------

	Elements           Molality       Moles

	C                 7.460e-01   7.460e-01
	Mtg               1.966e-01   1.966e-01

----------------------------Description of solution----------------------------

                                       pH  =   3.042      Charge balance
                                       pe  =  12.127      Adjusted to redox equilibrium
       Specific Conductance (µS/cm, 75°C)  = 796
                          Density (g/cm³)  =   1.01864
                               Volume (L)  =   1.01703
                        Activity of water  =   0.984
                           Ionic strength  =   9.410e-04
                       Mass of water (kg)  =   1.000e+00
                 Total alkalinity (eq/kg)  =   1.955e-06
                       Total CO2 (mol/kg)  =   7.460e-01
                         Temperature (°C)  =  75.00
                           Pressure (atm)  = 1030.20
                  Electrical balance (eq)  =  -1.955e-06
 Percent error, 100*(Cat-|An|)/(Cat+|An|)  =  -0.10
                               Iterations  =  24
                                  Total H  = 1.110124e+02
                                  Total O  = 5.699824e+01

----------------------------Distribution of species----------------------------

                                               Log       Log       Log    mole V
   Species          Molality    Activity  Molality  Activity     Gamma   cm³/mol

   H+              9.400e-04   9.081e-04    -3.027    -3.042    -0.015      0.00
   OH-             5.615e-10   5.415e-10    -9.251    -9.266    -0.016     -6.96
   H2O             5.551e+01   9.845e-01     1.744    -0.007     0.000     17.73
C(-4)         0.000e+00
   CH4             0.000e+00   0.000e+00  -103.908  -103.908     0.000     38.84
C(4)          7.460e-01
   CO2             6.853e-01   6.855e-01    -0.164    -0.164     0.000     35.57
   (CO2)2          2.989e-02   2.990e-02    -1.524    -1.524     0.000     71.14
   HCO3-           9.420e-04   9.089e-04    -3.026    -3.041    -0.016     27.13
   CO3-2           2.258e-10   1.958e-10    -9.646    -9.708    -0.062      0.50
H(0)          1.537e-34
   H2              7.687e-35   7.688e-35   -34.114   -34.114     0.000     28.22
Mtg           1.966e-01
   Mtg             1.966e-01   1.966e-01    -0.706    -0.706     0.000     32.22
O(0)          1.393e-11
   O2              6.963e-12   6.964e-12   -11.157   -11.157     0.000     30.84

------------------------------Saturation indices-------------------------------

  Phase               SI** log IAP   log K(348 K, 1030 atm)

  CH4(g)         -100.29   -103.91   -3.62  CH4
  CO2(g)            2.27     -0.16   -2.43  CO2	 Pressure 434.4 atm, phi 0.425
  H2(g)           -30.54    -34.11   -3.57  H2
  H2O(g)           -0.15     -0.01    0.15  H2O
  Mtg(g)            2.81     -0.71   -3.52  Mtg	 Pressure 595.8 atm, phi 1.086
  O2(g)            -7.58    -11.16   -3.58  O2

**For a gas, SI = log10(fugacity). Fugacity = pressure * phi / 1 atm.
  For ideal gases, phi = 1.

Reaction step 17.

WARNING: Numerical method failed, switching to numerical derivatives.
WARNING: Maximum iterations exceeded, 100

WARNING: Numerical method failed with this set of convergence parameters.

WARNING: Trying smaller step size, pe step size 10, 5 ... 

Using solution 1.	pH 7 charge
Using gas phase 6.	
Using reaction 1.	

Reaction 1.	

	  1.000e+00 moles of the following reaction have been added:

	                 Relative
	Reactant            moles

	CO2                  1.00000

	                 Relative
	Element             moles
	C                    1.00000
	O                    2.00000

----------------------------------User print-----------------------------------

          75   6.4816e+02   1.1915e+00 

-----------------------------------Gas phase-----------------------------------

Total pressure: 1166.29      atmospheres          (Peng-Robinson calculation)
    Gas volume:   1.00e+00 liters
  Molar volume:   4.14e-02 liters/mole
   P * Vm / RT:  1.68858  (Compressibility Factor Z) 

                                                        Moles in gas
                                            ----------------------------------
Component         log P           P    phi     Initial       Final       Delta

CO2(g)             2.71   5.181e+02  0.449   9.798e+00   1.074e+01   9.425e-01
Mtg(g)             2.81   6.482e+02  1.192   1.344e+01   1.344e+01  -4.701e-03

-----------------------------Solution composition------------------------------

	Elements           Molality       Moles

	C                 8.035e-01   8.035e-01
	Mtg               2.013e-01   2.013e-01

----------------------------Description of solution----------------------------

                                       pH  =   3.003      Charge balance
                                       pe  =  12.163      Adjusted to redox equilibrium
       Specific Conductance (µS/cm, 75°C)  = 862
                          Density (g/cm³)  =   1.02378
                               Volume (L)  =   1.01447
                        Activity of water  =   0.983
                           Ionic strength  =   1.029e-03
                       Mass of water (kg)  =   1.000e+00
                 Total alkalinity (eq/kg)  =   1.955e-06
                       Total CO2 (mol/kg)  =   8.035e-01
                         Temperature (°C)  =  75.00
                           Pressure (atm)  = 1166.29
                  Electrical balance (eq)  =  -1.955e-06
 Percent error, 100*(Cat-|An|)/(Cat+|An|)  =  -0.09
                               Iterations  =  29
                                  Total H  = 1.110124e+02
                                  Total O  = 5.711329e+01

----------------------------Distribution of species----------------------------

                                               Log       Log       Log    mole V
   Species          Molality    Activity  Molality  Activity     Gamma   cm³/mol

   H+              1.028e-03   9.921e-04    -2.988    -3.003    -0.016      0.00
   OH-             5.814e-10   5.599e-10    -9.236    -9.252    -0.016     -7.17
   H2O             5.551e+01   9.835e-01     1.744    -0.007     0.000     17.65
C(-4)         0.000e+00
   CH4             0.000e+00   0.000e+00  -103.939  -103.939     0.000     38.81
C(4)          8.035e-01
   CO2             7.339e-01   7.341e-01    -0.134    -0.134     0.000     35.42
   (CO2)2          3.428e-02   3.429e-02    -1.465    -1.465     0.000     70.84
   HCO3-           1.030e-03   9.927e-04    -2.987    -3.003    -0.016     27.28
   CO3-2           2.503e-10   2.158e-10    -9.602    -9.666    -0.064      1.36
H(0)          1.360e-34
   H2              6.799e-35   6.801e-35   -34.168   -34.167     0.000     28.18
Mtg           2.013e-01
   Mtg             2.013e-01   2.013e-01    -0.696    -0.696     0.000     32.22
O(0)          1.393e-11
   O2              6.966e-12   6.968e-12   -11.157   -11.157     0.000     30.64

------------------------------Saturation indices-------------------------------

  Phase               SI** log IAP   log K(348 K, 1166 atm)

  CH4(g)         -100.24   -103.94   -3.70  CH4
  CO2(g)            2.37     -0.13   -2.50  CO2	 Pressure 518.1 atm, phi 0.449
  H2(g)           -30.54    -34.17   -3.63  H2
  H2O(g)           -0.12     -0.01    0.11  H2O
  Mtg(g)            2.89     -0.70   -3.58  Mtg	 Pressure 648.2 atm, phi 1.192
  O2(g)            -7.52    -11.16   -3.64  O2

**For a gas, SI = log10(fugacity). Fugacity = pressure * phi / 1 atm.
  For ideal gases, phi = 1.

Reaction step 18.

WARNING: Numerical method failed, switching to numerical derivatives.
WARNING: Maximum iterations exceeded, 100

WARNING: Numerical method failed with this set of convergence parameters.

WARNING: Trying smaller step size, pe step size 10, 5 ... 

Using solution 1.	pH 7 charge
Using gas phase 6.	
Using reaction 1.	

Reaction 1.	

	  1.000e+00 moles of the following reaction have been added:

	                 Relative
	Reactant            moles

	CO2                  1.00000

	                 Relative
	Element             moles
	C                    1.00000
	O                    2.00000

----------------------------------User print-----------------------------------

          75   7.1130e+02   1.3407e+00 

-----------------------------------Gas phase-----------------------------------

Total pressure: 1330.07      atmospheres          (Peng-Robinson calculation)
    Gas volume:   1.00e+00 liters
  Molar volume:   3.98e-02 liters/mole
   P * Vm / RT:  1.85380  (Compressibility Factor Z) 

                                                        Moles in gas
                                            ----------------------------------
Component         log P           P    phi     Initial       Final       Delta

CO2(g)             2.79   6.188e+02  0.487   1.074e+01   1.168e+01   9.428e-01
Mtg(g)             2.85   7.113e+02  1.341   1.344e+01   1.343e+01  -5.351e-03

-----------------------------Solution composition------------------------------

	Elements           Molality       Moles

	C                 8.607e-01   8.607e-01
	Mtg               2.067e-01   2.066e-01

----------------------------Description of solution----------------------------

                                       pH  =   2.962      Charge balance
                                       pe  =  12.202      Adjusted to redox equilibrium
       Specific Conductance (µS/cm, 75°C)  = 938
                          Density (g/cm³)  =   1.02965
                               Volume (L)  =   1.01121
                        Activity of water  =   0.982
                           Ionic strength  =   1.133e-03
                       Mass of water (kg)  =   1.000e+00
                 Total alkalinity (eq/kg)  =   1.955e-06
                       Total CO2 (mol/kg)  =   8.607e-01
                         Temperature (°C)  =  75.00
                           Pressure (atm)  = 1330.07
                  Electrical balance (eq)  =  -1.955e-06
 Percent error, 100*(Cat-|An|)/(Cat+|An|)  =  -0.09
                               Iterations  =  32
                                  Total H  = 1.110124e+02
                                  Total O  = 5.722762e+01

----------------------------Distribution of species----------------------------

                                               Log       Log       Log    mole V
   Species          Molality    Activity  Molality  Activity     Gamma   cm³/mol

   H+              1.132e-03   1.091e-03    -2.946    -2.962    -0.016      0.00
   OH-             6.137e-10   5.901e-10    -9.212    -9.229    -0.017     -7.40
   H2O             5.551e+01   9.825e-01     1.744    -0.008     0.000     17.55
C(-4)         0.000e+00
   CH4             0.000e+00   0.000e+00  -103.983  -103.983     0.000     38.77
C(4)          8.607e-01
   CO2             7.818e-01   7.820e-01    -0.107    -0.107     0.000     35.25
   (CO2)2          3.890e-02   3.891e-02    -1.410    -1.410     0.000     70.50
   HCO3-           1.134e-03   1.091e-03    -2.945    -2.962    -0.017     27.45
   CO3-2           2.813e-10   2.413e-10    -9.551    -9.618    -0.067      2.32
H(0)          1.174e-34
   H2              5.870e-35   5.872e-35   -34.231   -34.231     0.000     28.15
Mtg           2.067e-01
   Mtg             2.067e-01   2.067e-01    -0.685    -0.685     0.000     32.22
O(0)          1.393e-11
   O2              6.966e-12   6.968e-12   -11.157   -11.157     0.000     30.42

------------------------------Saturation indices-------------------------------

  Phase               SI** log IAP   log K(348 K, 1330 atm)

  CH4(g)         -100.19   -103.98   -3.80  CH4
  CO2(g)            2.48     -0.11   -2.59  CO2	 Pressure 618.8 atm, phi 0.487
  H2(g)           -30.53    -34.23   -3.70  H2
  H2O(g)           -0.08     -0.01    0.07  H2O
  Mtg(g)            2.98     -0.68   -3.66  Mtg	 Pressure 711.3 atm, phi 1.341
  O2(g)            -7.44    -11.16   -3.71  O2

**For a gas, SI = log10(fugacity). Fugacity = pressure * phi / 1 atm.
  For ideal gases, phi = 1.

------------------
End of simulation.
------------------

------------------------------------
Reading input data for simulation 4.
------------------------------------

-------------------------------
End of Run after 0.093 Seconds.
-------------------------------

