WARNING: Database file from DATABASE keyword is used; command line argument ignored.
   Input file: phi_CO2-CH4_GP
  Output file: phi_CO2-CH4_GP.out
Database file: ../database/Amm.dat

------------------
Reading data base.
------------------

	SOLUTION_MASTER_SPECIES
	SOLUTION_SPECIES
	PHASES
	EXCHANGE_MASTER_SPECIES
	EXCHANGE_SPECIES
	SURFACE_MASTER_SPECIES
	SURFACE_SPECIES
	RATES
	END
------------------------------------
Reading input data for simulation 1.
------------------------------------

	DATABASE ../database/Amm.dat
	SELECTED_OUTPUT 101
	    file                 phi_CO2-CH4_GP_101.sel
	USER_PUNCH 101
	    headings Mu SC
	    start
	10 PUNCH STR_F$(MU, 20, 12)
	20 PUNCH STR_F$(SC, 20, 10)
	    end
	SOLUTION 1 pH 7 charge
	GAS_PHASE 6
	    fixed_volume
	    CO2(g) 1
		Mtg(g) 400
	USER_PRINT
	 10 print tc, PR_P("Mtg(g)"), PR_PHI("Mtg(g)")
	USER_GRAPH
	  -headings 25.oC P_total
	 -axis_titles "CO2 pressure / atm" "CO2 fugacity coefficient (-)" "Total pressure / atm"
	 -axis_scale x_axis 0 500
	 -axis_scale y_axis 0 1.2
	 -init false
	 10 x = PR_P("CO2(g)")
	 20 plot_xy x, PR_Phi("CO2(g)"), symbol = None, line_w 2 color = Red
	 30 if step_no > 0 then plot_xy x, gas_p, symbol = Circle, line_w 1, y_axis = 2 color = Red 
	 -end
	REACTION
	 CO2 1
	 0.01 5*0.1 11*1
	INCREMENTAL_REACTIONS true
	END
-------------------------------------------
Beginning of initial solution calculations.
-------------------------------------------

Initial solution 1.	pH 7 charge

----------------------------------User print-----------------------------------

          25            0            1 

-----------------------------Solution composition------------------------------

	Elements           Molality       Moles

	Pure water     

----------------------------Description of solution----------------------------

                                       pH  =   7.000    
                                       pe  =   4.000    
      Specific Conductance (µS/cm,  25°C)  = 0
                          Density (g/cm³)  =   0.99704
                               Volume (L)  =   1.00297
                        Viscosity (mPa s)  =   0.89002
                        Activity of water  =   1.000
                 Ionic strength (mol/kgw)  =   1.007e-07
                       Mass of water (kg)  =   1.000e+00
                 Total alkalinity (eq/kg)  =   1.217e-09
                         Temperature (°C)  =  25.00
                  Electrical balance (eq)  =  -1.217e-09
 Percent error, 100*(Cat-|An|)/(Cat+|An|)  =  -0.60
                               Iterations  =   0
                                  Total H  = 1.110124e+02
                                  Total O  = 5.550622e+01

----------------------------Distribution of species----------------------------

                                               Log       Log       Log    mole V
   Species          Molality    Activity  Molality  Activity     Gamma   cm³/mol

   OH-             1.013e-07   1.012e-07    -6.995    -6.995    -0.000     -4.14
   H+              1.001e-07   1.000e-07    -7.000    -7.000    -0.000      0.00
   H2O             5.551e+01   1.000e+00     1.744     0.000     0.000     18.07
H(0)          1.416e-25
   H2              7.079e-26   7.079e-26   -25.150   -25.150     0.000     28.61
O(0)          0.000e+00
   O2              0.000e+00   0.000e+00   -42.080   -42.080     0.000     30.40

------------------------------Saturation indices-------------------------------

  Phase               SI** log IAP   log K(298 K,   1 atm)

  H2(g)           -22.05    -25.15   -3.10  H2
  H2O(g)           -1.50      0.00    1.50  H2O
  O2(g)           -39.19    -42.08   -2.89  O2

**For a gas, SI = log10(fugacity). Fugacity = pressure * phi / 1 atm.
  For ideal gases, phi = 1.

-----------------------------------------
Beginning of batch-reaction calculations.
-----------------------------------------

Reaction step 1.

WARNING: Numerical method failed, switching to numerical derivatives.
WARNING: Maximum iterations exceeded, 100

WARNING: Numerical method failed with this set of convergence parameters.

WARNING: Trying smaller step size, pe step size 10, 5 ... 

Using solution 1.	pH 7 charge
Using gas phase 6.	
Using reaction 1.	

Reaction 1.	

	  1.000e-02 moles of the following reaction have been added:

	                 Relative
	Reactant            moles

	CO2                  1.00000

	                 Relative
	Element             moles
	C                    1.00000
	O                    2.00000

----------------------------------User print-----------------------------------

          25   3.8986e+02   6.5588e-01 

-----------------------------------Gas phase-----------------------------------

Total pressure: 390.94      atmospheres          (Peng-Robinson calculation)
    Gas volume:   1.00e+00 liters
  Molar volume:   6.13e-02 liters/mole
   P * Vm / RT:  0.97941  (Compressibility Factor Z) 

                                                        Moles in gas
                                            ----------------------------------
Component         log P           P    phi     Initial       Final       Delta

CO2(g)             0.03   1.078e+00  0.291   4.124e-02   4.500e-02   3.756e-03
Mtg(g)             2.59   3.899e+02  0.656   1.650e+01   1.627e+01  -2.277e-01

-----------------------------Solution composition------------------------------

	Elements           Molality       Moles

	C                 6.244e-03   6.244e-03
	Mtg               2.277e-01   2.277e-01

----------------------------Description of solution----------------------------

                                       pH  =   4.188      Charge balance
                                       pe  =  13.877      Adjusted to redox equilibrium
      Specific Conductance (µS/cm,  25°C)  = 25
                          Density (g/cm³)  =   1.00955
                               Volume (L)  =   0.99443
                        Viscosity (mPa s)  =   0.88716
                        Activity of water  =   0.996
                 Ionic strength (mol/kgw)  =   6.548e-05
                       Mass of water (kg)  =   1.000e+00
                 Total alkalinity (eq/kg)  =   1.217e-09
                       Total CO2 (mol/kg)  =   6.244e-03
                         Temperature (°C)  =  25.00
                           Pressure (atm)  = 390.94
                  Electrical balance (eq)  =  -1.217e-09
 Percent error, 100*(Cat-|An|)/(Cat+|An|)  =  -0.00
                               Iterations  = 101 (202 overall)
                                  Total H  = 1.110124e+02
                                  Total O  = 5.551871e+01

----------------------------Distribution of species----------------------------

                                               Log       Log       Log    mole V
   Species          Molality    Activity  Molality  Activity     Gamma   cm³/mol

   H+              6.548e-05   6.488e-05    -4.184    -4.188    -0.004      0.00
   OH-             2.177e-10   2.157e-10    -9.662    -9.666    -0.004     -2.83
   H2O             5.551e+01   9.960e-01     1.744    -0.002     0.000     17.76
C(-4)         0.000e+00
   CH4             0.000e+00   0.000e+00  -122.596  -122.596     0.000     35.91
C(4)          6.244e-03
   CO2             6.177e-03   6.178e-03    -2.209    -2.209     0.000     34.25
   HCO3-           6.548e-05   6.488e-05    -4.184    -4.188    -0.004     25.00
   (CO2)2          7.005e-07   7.005e-07    -6.155    -6.155     0.000     68.50
   CO3-2           7.354e-11   7.088e-11   -10.133   -10.149    -0.016     -0.92
H(0)          6.660e-40
   H2              3.330e-40   3.330e-40   -39.478   -39.478     0.000     28.44
Mtg           2.277e-01
   Mtg             2.277e-01   2.277e-01    -0.643    -0.643     0.000     35.91
O(0)          3.296e-14
   O2              1.648e-14   1.648e-14   -13.783   -13.783     0.000     29.89

------------------------------Saturation indices-------------------------------

  Phase               SI** log IAP   log K(298 K, 391 atm)

  CH4(g)         -119.55   -122.60   -3.05  CH4
  CO2(g)           -0.50     -2.21   -1.71  CO2	 Pressure   1.1 atm, phi 0.291
  H2(g)           -36.18    -39.48   -3.30  H2
  H2O(g)           -1.38     -0.00    1.38  H2O
  Mtg(g)            2.41     -0.64   -3.05  Mtg	 Pressure 389.9 atm, phi 0.656
  O2(g)           -10.68    -13.78   -3.10  O2

**For a gas, SI = log10(fugacity). Fugacity = pressure * phi / 1 atm.
  For ideal gases, phi = 1.

Reaction step 2.

Using solution 1.	pH 7 charge
Using gas phase 6.	
Using reaction 1.	

Reaction 1.	

	  1.000e-01 moles of the following reaction have been added:

	                 Relative
	Reactant            moles

	CO2                  1.00000

	                 Relative
	Element             moles
	C                    1.00000
	O                    2.00000

----------------------------------User print-----------------------------------

          25   3.9026e+02   6.5581e-01 

-----------------------------------Gas phase-----------------------------------

Total pressure: 393.45      atmospheres          (Peng-Robinson calculation)
    Gas volume:   1.00e+00 liters
  Molar volume:   6.10e-02 liters/mole
   P * Vm / RT:  0.98036  (Compressibility Factor Z) 

                                                        Moles in gas
                                            ----------------------------------
Component         log P           P    phi     Initial       Final       Delta

CO2(g)             0.50   3.190e+00  0.289   4.500e-02   1.330e-01   8.801e-02
Mtg(g)             2.59   3.903e+02  0.656   1.627e+01   1.627e+01   6.407e-04

-----------------------------Solution composition------------------------------

	Elements           Molality       Moles

	C                 1.824e-02   1.824e-02
	Mtg               2.270e-01   2.270e-01

----------------------------Description of solution----------------------------

                                       pH  =   3.954      Charge balance
                                       pe  =  14.116      Adjusted to redox equilibrium
      Specific Conductance (µS/cm,  25°C)  = 44
                          Density (g/cm³)  =   1.00978
                               Volume (L)  =   0.99471
                        Viscosity (mPa s)  =   0.88717
                        Activity of water  =   0.996
                 Ionic strength (mol/kgw)  =   1.126e-04
                       Mass of water (kg)  =   1.000e+00
                 Total alkalinity (eq/kg)  =   1.217e-09
                       Total CO2 (mol/kg)  =   1.824e-02
                         Temperature (°C)  =  25.00
                           Pressure (atm)  = 393.45
                  Electrical balance (eq)  =  -1.217e-09
 Percent error, 100*(Cat-|An|)/(Cat+|An|)  =  -0.00
                               Iterations  =  77
                                  Total H  = 1.110124e+02
                                  Total O  = 5.554269e+01

----------------------------Distribution of species----------------------------

                                               Log       Log       Log    mole V
   Species          Molality    Activity  Molality  Activity     Gamma   cm³/mol

   H+              1.126e-04   1.112e-04    -3.949    -3.954    -0.005      0.00
   OH-             1.276e-10   1.260e-10    -9.894    -9.899    -0.005     -2.82
   H2O             5.551e+01   9.958e-01     1.744    -0.002     0.000     17.76
C(-4)         0.000e+00
   CH4             0.000e+00   0.000e+00  -122.167  -122.167     0.000     35.92
C(4)          1.824e-02
   CO2             1.811e-02   1.811e-02    -1.742    -1.742     0.000     34.25
   HCO3-           1.126e-04   1.112e-04    -3.949    -3.954    -0.005     25.00
   (CO2)2          6.023e-06   6.023e-06    -5.220    -5.220     0.000     68.50
   CO3-2           7.453e-11   7.104e-11   -10.128   -10.149    -0.021     -0.90
H(0)          6.502e-40
   H2              3.251e-40   3.251e-40   -39.488   -39.488     0.000     28.44
Mtg           2.270e-01
   Mtg             2.270e-01   2.270e-01    -0.644    -0.644     0.000     35.92
O(0)          3.439e-14
   O2              1.720e-14   1.720e-14   -13.765   -13.765     0.000     29.88

------------------------------Saturation indices-------------------------------

  Phase               SI** log IAP   log K(298 K, 393 atm)

  CH4(g)         -119.11   -122.17   -3.05  CH4
  CO2(g)           -0.04     -1.74   -1.71  CO2	 Pressure   3.2 atm, phi 0.289
  H2(g)           -36.19    -39.49   -3.30  H2
  H2O(g)           -1.38     -0.00    1.38  H2O
  Mtg(g)            2.41     -0.64   -3.05  Mtg	 Pressure 390.3 atm, phi 0.656
  O2(g)           -10.66    -13.76   -3.10  O2

**For a gas, SI = log10(fugacity). Fugacity = pressure * phi / 1 atm.
  For ideal gases, phi = 1.

Reaction step 3.

Using solution 1.	pH 7 charge
Using gas phase 6.	
Using reaction 1.	

Reaction 1.	

	  1.000e-01 moles of the following reaction have been added:

	                 Relative
	Reactant            moles

	CO2                  1.00000

	                 Relative
	Element             moles
	C                    1.00000
	O                    2.00000

----------------------------------User print-----------------------------------

          25   3.9068e+02   6.5577e-01 

-----------------------------------Gas phase-----------------------------------

Total pressure: 395.99      atmospheres          (Peng-Robinson calculation)
    Gas volume:   1.00e+00 liters
  Molar volume:   6.06e-02 liters/mole
   P * Vm / RT:  0.98139  (Compressibility Factor Z) 

                                                        Moles in gas
                                            ----------------------------------
Component         log P           P    phi     Initial       Final       Delta

CO2(g)             0.73   5.311e+00  0.287   1.330e-01   2.212e-01   8.817e-02
Mtg(g)             2.59   3.907e+02  0.656   1.627e+01   1.627e+01   6.270e-04

-----------------------------Solution composition------------------------------

	Elements           Molality       Moles

	C                 3.006e-02   3.006e-02
	Mtg               2.264e-01   2.264e-01

----------------------------Description of solution----------------------------

                                       pH  =   3.844      Charge balance
                                       pe  =  14.254      Adjusted to redox equilibrium
      Specific Conductance (µS/cm,  25°C)  = 57
                          Density (g/cm³)  =   1.01001
                               Volume (L)  =   0.99499
                        Viscosity (mPa s)  =   0.88718
                        Activity of water  =   0.996
                 Ionic strength (mol/kgw)  =   1.450e-04
                       Mass of water (kg)  =   1.000e+00
                 Total alkalinity (eq/kg)  =   1.217e-09
                       Total CO2 (mol/kg)  =   3.006e-02
                         Temperature (°C)  =  25.00
                           Pressure (atm)  = 395.99
                  Electrical balance (eq)  =  -1.217e-09
 Percent error, 100*(Cat-|An|)/(Cat+|An|)  =  -0.00
                               Iterations  =  74
                                  Total H  = 1.110124e+02
                                  Total O  = 5.556634e+01

----------------------------Distribution of species----------------------------

                                               Log       Log       Log    mole V
   Species          Molality    Activity  Molality  Activity     Gamma   cm³/mol

   H+              1.450e-04   1.431e-04    -3.839    -3.844    -0.006      0.00
   OH-             9.953e-11   9.818e-11   -10.002   -10.008    -0.006     -2.81
   H2O             5.551e+01   9.956e-01     1.744    -0.002     0.000     17.76
C(-4)         0.000e+00
   CH4             0.000e+00   0.000e+00  -122.180  -122.180     0.000     35.92
C(4)          3.006e-02
   CO2             2.989e-02   2.989e-02    -1.525    -1.525     0.000     34.25
   HCO3-           1.450e-04   1.430e-04    -3.839    -3.845    -0.006     25.01
   (CO2)2          1.639e-05   1.640e-05    -4.785    -4.785     0.000     68.50
   CO3-2           7.518e-11   7.120e-11   -10.124   -10.147    -0.024     -0.87
H(0)          5.681e-40
   H2              2.841e-40   2.841e-40   -39.547   -39.547     0.000     28.44
Mtg           2.264e-01
   Mtg             2.264e-01   2.264e-01    -0.645    -0.645     0.000     35.92
O(0)          4.479e-14
   O2              2.239e-14   2.239e-14   -13.650   -13.650     0.000     29.88

------------------------------Saturation indices-------------------------------

  Phase               SI** log IAP   log K(298 K, 396 atm)

  CH4(g)         -119.13   -122.18   -3.05  CH4
  CO2(g)            0.18     -1.52   -1.71  CO2	 Pressure   5.3 atm, phi 0.287
  H2(g)           -36.25    -39.55   -3.30  H2
  H2O(g)           -1.38     -0.00    1.38  H2O
  Mtg(g)            2.41     -0.65   -3.05  Mtg	 Pressure 390.7 atm, phi 0.656
  O2(g)           -10.55    -13.65   -3.10  O2

**For a gas, SI = log10(fugacity). Fugacity = pressure * phi / 1 atm.
  For ideal gases, phi = 1.

Reaction step 4.

Using solution 1.	pH 7 charge
Using gas phase 6.	
Using reaction 1.	

Reaction 1.	

	  1.000e-01 moles of the following reaction have been added:

	                 Relative
	Reactant            moles

	CO2                  1.00000

	                 Relative
	Element             moles
	C                    1.00000
	O                    2.00000

----------------------------------User print-----------------------------------

          25   3.9113e+02   6.5575e-01 

-----------------------------------Gas phase-----------------------------------

Total pressure: 398.57      atmospheres          (Peng-Robinson calculation)
    Gas volume:   1.00e+00 liters
  Molar volume:   6.03e-02 liters/mole
   P * Vm / RT:  0.98248  (Compressibility Factor Z) 

                                                        Moles in gas
                                            ----------------------------------
Component         log P           P    phi     Initial       Final       Delta

CO2(g)             0.87   7.440e+00  0.286   2.212e-01   3.095e-01   8.833e-02
Mtg(g)             2.59   3.911e+02  0.656   1.627e+01   1.627e+01   6.132e-04

-----------------------------Solution composition------------------------------

	Elements           Molality       Moles

	C                 4.173e-02   4.173e-02
	Mtg               2.258e-01   2.258e-01

----------------------------Description of solution----------------------------

                                       pH  =   3.773      Charge balance
                                       pe  =  14.341      Adjusted to redox equilibrium
      Specific Conductance (µS/cm,  25°C)  = 67
                          Density (g/cm³)  =   1.01024
                               Volume (L)  =   0.99526
                        Viscosity (mPa s)  =   0.88718
                        Activity of water  =   0.995
                 Ionic strength (mol/kgw)  =   1.713e-04
                       Mass of water (kg)  =   1.000e+00
                 Total alkalinity (eq/kg)  =   1.218e-09
                       Total CO2 (mol/kg)  =   4.173e-02
                         Temperature (°C)  =  25.00
                           Pressure (atm)  = 398.57
                  Electrical balance (eq)  =  -1.218e-09
 Percent error, 100*(Cat-|An|)/(Cat+|An|)  =  -0.00
                               Iterations  =  60
                                  Total H  = 1.110124e+02
                                  Total O  = 5.558968e+01

----------------------------Distribution of species----------------------------

                                               Log       Log       Log    mole V
   Species          Molality    Activity  Molality  Activity     Gamma   cm³/mol

   H+              1.713e-04   1.688e-04    -3.766    -3.773    -0.006      0.00
   OH-             8.461e-11   8.336e-11   -10.073   -10.079    -0.006     -2.80
   H2O             5.551e+01   9.955e-01     1.744    -0.002     0.000     17.76
C(-4)         0.000e+00
   CH4             0.000e+00   0.000e+00  -122.163  -122.163     0.000     35.92
C(4)          4.173e-02
   CO2             4.150e-02   4.150e-02    -1.382    -1.382     0.000     34.25
   HCO3-           1.713e-04   1.688e-04    -3.766    -3.773    -0.006     25.01
   (CO2)2          3.161e-05   3.161e-05    -4.500    -4.500     0.000     68.50
   CO3-2           7.571e-11   7.137e-11   -10.121   -10.146    -0.026     -0.85
H(0)          5.275e-40
   H2              2.638e-40   2.638e-40   -39.579   -39.579     0.000     28.44
Mtg           2.258e-01
   Mtg             2.258e-01   2.258e-01    -0.646    -0.646     0.000     35.92
O(0)          5.164e-14
   O2              2.582e-14   2.582e-14   -13.588   -13.588     0.000     29.88

------------------------------Saturation indices-------------------------------

  Phase               SI** log IAP   log K(298 K, 399 atm)

  CH4(g)         -119.11   -122.16   -3.06  CH4
  CO2(g)            0.33     -1.38   -1.71  CO2	 Pressure   7.4 atm, phi 0.286
  H2(g)           -36.28    -39.58   -3.30  H2
  H2O(g)           -1.38     -0.00    1.38  H2O
  Mtg(g)            2.41     -0.65   -3.06  Mtg	 Pressure 391.1 atm, phi 0.656
  O2(g)           -10.48    -13.59   -3.10  O2

**For a gas, SI = log10(fugacity). Fugacity = pressure * phi / 1 atm.
  For ideal gases, phi = 1.

Reaction step 5.

Using solution 1.	pH 7 charge
Using gas phase 6.	
Using reaction 1.	

Reaction 1.	

	  1.000e-01 moles of the following reaction have been added:

	                 Relative
	Reactant            moles

	CO2                  1.00000

	                 Relative
	Element             moles
	C                    1.00000
	O                    2.00000

----------------------------------User print-----------------------------------

          25   3.9161e+02   6.5575e-01 

-----------------------------------Gas phase-----------------------------------

Total pressure: 401.19      atmospheres          (Peng-Robinson calculation)
    Gas volume:   1.00e+00 liters
  Molar volume:   6.00e-02 liters/mole
   P * Vm / RT:  0.98365  (Compressibility Factor Z) 

                                                        Moles in gas
                                            ----------------------------------
Component         log P           P    phi     Initial       Final       Delta

CO2(g)             0.98   9.578e+00  0.284   3.095e-01   3.980e-01   8.849e-02
Mtg(g)             2.59   3.916e+02  0.656   1.627e+01   1.627e+01   6.003e-04

-----------------------------Solution composition------------------------------

	Elements           Molality       Moles

	C                 5.324e-02   5.324e-02
	Mtg               2.252e-01   2.252e-01

----------------------------Description of solution----------------------------

                                       pH  =   3.719      Charge balance
                                       pe  =  14.389      Adjusted to redox equilibrium
      Specific Conductance (µS/cm,  25°C)  = 76
                          Density (g/cm³)  =   1.01047
                               Volume (L)  =   0.99553
                        Viscosity (mPa s)  =   0.88719
                        Activity of water  =   0.995
                 Ionic strength (mol/kgw)  =   1.939e-04
                       Mass of water (kg)  =   1.000e+00
                 Total alkalinity (eq/kg)  =   1.217e-09
                       Total CO2 (mol/kg)  =   5.324e-02
                         Temperature (°C)  =  25.00
                           Pressure (atm)  = 401.19
                  Electrical balance (eq)  =  -1.217e-09
 Percent error, 100*(Cat-|An|)/(Cat+|An|)  =  -0.00
                               Iterations  =  87
                                  Total H  = 1.110124e+02
                                  Total O  = 5.561270e+01

----------------------------Distribution of species----------------------------

                                               Log       Log       Log    mole V
   Species          Molality    Activity  Molality  Activity     Gamma   cm³/mol

   H+              1.939e-04   1.909e-04    -3.712    -3.719    -0.007      0.00
   OH-             7.502e-11   7.384e-11   -10.125   -10.132    -0.007     -2.79
   H2O             5.551e+01   9.953e-01     1.744    -0.002     0.000     17.76
C(-4)         0.000e+00
   CH4             0.000e+00   0.000e+00  -122.012  -122.012     0.000     35.92
C(4)          5.324e-02
   CO2             5.295e-02   5.295e-02    -1.276    -1.276     0.000     34.25
   HCO3-           1.939e-04   1.909e-04    -3.712    -3.719    -0.007     25.01
   (CO2)2          5.145e-05   5.146e-05    -4.289    -4.289     0.000     68.49
   CO3-2           7.617e-11   7.155e-11   -10.118   -10.145    -0.027     -0.83
H(0)          5.401e-40
   H2              2.701e-40   2.701e-40   -39.569   -39.569     0.000     28.44
Mtg           2.252e-01
   Mtg             2.252e-01   2.252e-01    -0.647    -0.647     0.000     35.92
O(0)          4.898e-14
   O2              2.449e-14   2.449e-14   -13.611   -13.611     0.000     29.87

------------------------------Saturation indices-------------------------------

  Phase               SI** log IAP   log K(298 K, 401 atm)

  CH4(g)         -118.95   -122.01   -3.06  CH4
  CO2(g)            0.44     -1.28   -1.71  CO2	 Pressure   9.6 atm, phi 0.284
  H2(g)           -36.27    -39.57   -3.30  H2
  H2O(g)           -1.38     -0.00    1.38  H2O
  Mtg(g)            2.41     -0.65   -3.06  Mtg	 Pressure 391.6 atm, phi 0.656
  O2(g)           -10.51    -13.61   -3.10  O2

**For a gas, SI = log10(fugacity). Fugacity = pressure * phi / 1 atm.
  For ideal gases, phi = 1.

Reaction step 6.

WARNING: Numerical method failed, switching to numerical derivatives.
WARNING: Maximum iterations exceeded, 100

WARNING: Numerical method failed with this set of convergence parameters.

WARNING: Trying smaller step size, pe step size 10, 5 ... 

Using solution 1.	pH 7 charge
Using gas phase 6.	
Using reaction 1.	

Reaction 1.	

	  1.000e-01 moles of the following reaction have been added:

	                 Relative
	Reactant            moles

	CO2                  1.00000

	                 Relative
	Element             moles
	C                    1.00000
	O                    2.00000

----------------------------------User print-----------------------------------

          25   3.9212e+02   6.5578e-01 

-----------------------------------Gas phase-----------------------------------

Total pressure: 403.85      atmospheres          (Peng-Robinson calculation)
    Gas volume:   1.00e+00 liters
  Molar volume:   5.97e-02 liters/mole
   P * Vm / RT:  0.98490  (Compressibility Factor Z) 

                                                        Moles in gas
                                            ----------------------------------
Component         log P           P    phi     Initial       Final       Delta

CO2(g)             1.07   1.173e+01  0.283   3.980e-01   4.866e-01   8.864e-02
Mtg(g)             2.59   3.921e+02  0.656   1.627e+01   1.627e+01   5.871e-04

-----------------------------Solution composition------------------------------

	Elements           Molality       Moles

	C                 6.460e-02   6.460e-02
	Mtg               2.246e-01   2.246e-01

----------------------------Description of solution----------------------------

                                       pH  =   3.677      Charge balance
                                       pe  =  14.586      Adjusted to redox equilibrium
      Specific Conductance (µS/cm,  25°C)  = 84
                          Density (g/cm³)  =   1.01070
                               Volume (L)  =   0.99579
                        Viscosity (mPa s)  =   0.88719
                        Activity of water  =   0.995
                 Ionic strength (mol/kgw)  =   2.140e-04
                       Mass of water (kg)  =   1.000e+00
                 Total alkalinity (eq/kg)  =   1.217e-09
                       Total CO2 (mol/kg)  =   6.460e-02
                         Temperature (°C)  =  25.00
                           Pressure (atm)  = 403.85
                  Electrical balance (eq)  =  -1.217e-09
 Percent error, 100*(Cat-|An|)/(Cat+|An|)  =  -0.00
                               Iterations  =  42 (143 overall)
                                  Total H  = 1.110124e+02
                                  Total O  = 5.563543e+01

----------------------------Distribution of species----------------------------

                                               Log       Log       Log    mole V
   Species          Molality    Activity  Molality  Activity     Gamma   cm³/mol

   H+              2.140e-04   2.106e-04    -3.670    -3.677    -0.007      0.00
   OH-             6.819e-11   6.707e-11   -10.166   -10.173    -0.007     -2.79
   H2O             5.551e+01   9.951e-01     1.744    -0.002     0.000     17.75
C(-4)         0.000e+00
   CH4             0.000e+00   0.000e+00  -123.163  -123.163     0.000     35.93
C(4)          6.460e-02
   CO2             6.424e-02   6.424e-02    -1.192    -1.192     0.000     34.25
   HCO3-           2.140e-04   2.105e-04    -3.670    -3.677    -0.007     25.02
   (CO2)2          7.575e-05   7.575e-05    -4.121    -4.121     0.000     68.49
   CO3-2           7.660e-11   7.173e-11   -10.116   -10.144    -0.029     -0.80
H(0)          2.647e-40
   H2              1.324e-40   1.324e-40   -39.878   -39.878     0.000     28.44
Mtg           2.246e-01
   Mtg             2.246e-01   2.246e-01    -0.649    -0.649     0.000     35.93
O(0)          2.027e-13
   O2              1.013e-13   1.013e-13   -12.994   -12.994     0.000     29.87

------------------------------Saturation indices-------------------------------

  Phase               SI** log IAP   log K(298 K, 404 atm)

  CH4(g)         -120.10   -123.16   -3.06  CH4
  CO2(g)            0.52     -1.19   -1.71  CO2	 Pressure  11.7 atm, phi 0.283
  H2(g)           -36.57    -39.88   -3.30  H2
  H2O(g)           -1.38     -0.00    1.38  H2O
  Mtg(g)            2.41     -0.65   -3.06  Mtg	 Pressure 392.1 atm, phi 0.656
  O2(g)            -9.89    -12.99   -3.11  O2

**For a gas, SI = log10(fugacity). Fugacity = pressure * phi / 1 atm.
  For ideal gases, phi = 1.

Reaction step 7.

WARNING: Numerical method failed, switching to numerical derivatives.
WARNING: Maximum iterations exceeded, 100

WARNING: Numerical method failed with this set of convergence parameters.

WARNING: Trying smaller step size, pe step size 10, 5 ... 

Using solution 1.	pH 7 charge
Using gas phase 6.	
Using reaction 1.	

Reaction 1.	

	  1.000e+00 moles of the following reaction have been added:

	                 Relative
	Reactant            moles

	CO2                  1.00000

	                 Relative
	Element             moles
	C                    1.00000
	O                    2.00000

----------------------------------User print-----------------------------------

          25   3.9898e+02   6.5733e-01 

-----------------------------------Gas phase-----------------------------------

Total pressure: 432.81      atmospheres          (Peng-Robinson calculation)
    Gas volume:   1.00e+00 liters
  Molar volume:   5.66e-02 liters/mole
   P * Vm / RT:  1.00179  (Compressibility Factor Z) 

                                                        Moles in gas
                                            ----------------------------------
Component         log P           P    phi     Initial       Final       Delta

CO2(g)             1.53   3.384e+01  0.269   4.866e-01   1.381e+00   8.940e-01
Mtg(g)             2.60   3.990e+02  0.657   1.627e+01   1.628e+01   5.186e-03

-----------------------------Solution composition------------------------------

	Elements           Molality       Moles

	C                 1.706e-01   1.706e-01
	Mtg               2.194e-01   2.194e-01

----------------------------Description of solution----------------------------

                                       pH  =   3.460      Charge balance
                                       pe  =  15.006      Adjusted to redox equilibrium
      Specific Conductance (µS/cm,  25°C)  = 139
                          Density (g/cm³)  =   1.01301
                               Volume (L)  =   0.99805
                        Viscosity (mPa s)  =   0.88723
                        Activity of water  =   0.993
                 Ionic strength (mol/kgw)  =   3.540e-04
                       Mass of water (kg)  =   1.000e+00
                 Total alkalinity (eq/kg)  =   1.217e-09
                       Total CO2 (mol/kg)  =   1.706e-01
                         Temperature (°C)  =  25.00
                           Pressure (atm)  = 432.81
                  Electrical balance (eq)  =  -1.217e-09
 Percent error, 100*(Cat-|An|)/(Cat+|An|)  =  -0.00
                               Iterations  =  41 (142 overall)
                                  Total H  = 1.110124e+02
                                  Total O  = 5.584749e+01

----------------------------Distribution of species----------------------------

                                               Log       Log       Log    mole V
   Species          Molality    Activity  Molality  Activity     Gamma   cm³/mol

   H+              3.540e-04   3.468e-04    -3.451    -3.460    -0.009      0.00
   OH-             4.247e-11   4.158e-11   -10.372   -10.381    -0.009     -2.70
   H2O             5.551e+01   9.934e-01     1.744    -0.003     0.000     17.73
C(-4)         0.000e+00
   CH4             0.000e+00   0.000e+00  -124.389  -124.389     0.000     35.95
C(4)          1.706e-01
   CO2             1.692e-01   1.692e-01    -0.772    -0.771     0.000     34.23
   (CO2)2          5.257e-04   5.257e-04    -3.279    -3.279     0.000     68.46
   HCO3-           3.540e-04   3.467e-04    -3.451    -3.460    -0.009     25.05
   CO3-2           8.014e-11   7.369e-11   -10.096   -10.133    -0.036     -0.58
H(0)          0.000e+00
   H2              0.000e+00   0.000e+00   -40.300   -40.300     0.000     28.43
Mtg           2.194e-01
   Mtg             2.194e-01   2.194e-01    -0.659    -0.659     0.000     35.95
O(0)          1.326e-12
   O2              6.628e-13   6.628e-13   -12.179   -12.179     0.000     29.84

------------------------------Saturation indices-------------------------------

  Phase               SI** log IAP   log K(298 K, 433 atm)

  CH4(g)         -121.31   -124.39   -3.08  CH4
  CO2(g)            0.96     -0.77   -1.73  CO2	 Pressure  33.8 atm, phi 0.269
  H2(g)           -36.98    -40.30   -3.32  H2
  H2O(g)           -1.37     -0.00    1.37  H2O
  Mtg(g)            2.42     -0.66   -3.08  Mtg	 Pressure 399.0 atm, phi 0.657
  O2(g)            -9.06    -12.18   -3.12  O2

**For a gas, SI = log10(fugacity). Fugacity = pressure * phi / 1 atm.
  For ideal gases, phi = 1.

Reaction step 8.

WARNING: Numerical method failed, switching to numerical derivatives.
WARNING: Maximum iterations exceeded, 100

WARNING: Numerical method failed with this set of convergence parameters.

WARNING: Trying smaller step size, pe step size 10, 5 ... 

Using solution 1.	pH 7 charge
Using gas phase 6.	
Using reaction 1.	

Reaction 1.	

	  1.000e+00 moles of the following reaction have been added:

	                 Relative
	Reactant            moles

	CO2                  1.00000

	                 Relative
	Element             moles
	C                    1.00000
	O                    2.00000

----------------------------------User print-----------------------------------

          25   4.0935e+02   6.6156e-01 

-----------------------------------Gas phase-----------------------------------

Total pressure: 466.83      atmospheres          (Peng-Robinson calculation)
    Gas volume:   1.00e+00 liters
  Molar volume:   5.39e-02 liters/mole
   P * Vm / RT:  1.02758  (Compressibility Factor Z) 

                                                        Moles in gas
                                            ----------------------------------
Component         log P           P    phi     Initial       Final       Delta

CO2(g)             1.76   5.749e+01  0.257   1.381e+00   2.287e+00   9.059e-01
Mtg(g)             2.61   4.093e+02  0.662   1.628e+01   1.628e+01   4.029e-03

-----------------------------Solution composition------------------------------

	Elements           Molality       Moles

	C                 2.647e-01   2.647e-01
	Mtg               2.154e-01   2.154e-01

----------------------------Description of solution----------------------------

                                       pH  =   3.358      Charge balance
                                       pe  =  15.109      Adjusted to redox equilibrium
      Specific Conductance (µS/cm,  25°C)  = 176
                          Density (g/cm³)  =   1.01536
                               Volume (L)  =   0.99974
                        Viscosity (mPa s)  =   0.88730
                        Activity of water  =   0.992
                 Ionic strength (mol/kgw)  =   4.490e-04
                       Mass of water (kg)  =   1.000e+00
                 Total alkalinity (eq/kg)  =   1.217e-09
                       Total CO2 (mol/kg)  =   2.647e-01
                         Temperature (°C)  =  25.00
                           Pressure (atm)  = 466.83
                  Electrical balance (eq)  =  -1.217e-09
 Percent error, 100*(Cat-|An|)/(Cat+|An|)  =  -0.00
                               Iterations  =  60 (161 overall)
                                  Total H  = 1.110124e+02
                                  Total O  = 5.603560e+01

----------------------------Distribution of species----------------------------

                                               Log       Log       Log    mole V
   Species          Molality    Activity  Molality  Activity     Gamma   cm³/mol

   H+              4.490e-04   4.388e-04    -3.348    -3.358    -0.010      0.00
   OH-             3.449e-11   3.368e-11   -10.462   -10.473    -0.010     -2.60
   H2O             5.551e+01   9.919e-01     1.744    -0.004     0.000     17.71
C(-4)         0.000e+00
   CH4             0.000e+00   0.000e+00  -124.223  -124.222     0.000     35.99
C(4)          2.647e-01
   CO2             2.617e-01   2.617e-01    -0.582    -0.582     0.000     34.22
   (CO2)2          1.257e-03   1.258e-03    -2.901    -2.900     0.000     68.43
   HCO3-           4.490e-04   4.386e-04    -3.348    -3.358    -0.010     25.09
   CO3-2           8.354e-11   7.605e-11   -10.078   -10.119    -0.041     -0.33
H(0)          0.000e+00
   H2              0.000e+00   0.000e+00   -40.318   -40.318     0.000     28.41
Mtg           2.154e-01
   Mtg             2.154e-01   2.154e-01    -0.667    -0.667     0.000     35.99
O(0)          1.335e-12
   O2              6.675e-13   6.676e-13   -12.176   -12.176     0.000     29.80

------------------------------Saturation indices-------------------------------

  Phase               SI** log IAP   log K(298 K, 467 atm)

  CH4(g)         -121.12   -124.22   -3.10  CH4
  CO2(g)            1.17     -0.58   -1.75  CO2	 Pressure  57.5 atm, phi 0.257
  H2(g)           -36.98    -40.32   -3.34  H2
  H2O(g)           -1.36     -0.00    1.36  H2O
  Mtg(g)            2.43     -0.67   -3.10  Mtg	 Pressure 409.3 atm, phi 0.662
  O2(g)            -9.04    -12.18   -3.14  O2

**For a gas, SI = log10(fugacity). Fugacity = pressure * phi / 1 atm.
  For ideal gases, phi = 1.

Reaction step 9.

WARNING: Numerical method failed, switching to numerical derivatives.
WARNING: Maximum iterations exceeded, 100

WARNING: Numerical method failed with this set of convergence parameters.

WARNING: Trying smaller step size, pe step size 10, 5 ... 

WARNING: Maximum iterations exceeded, 200

WARNING: Numerical method failed with this set of convergence parameters.

WARNING: Trying reduced tolerance 1e-16 ...

Using solution 1.	pH 7 charge
Using gas phase 6.	
Using reaction 1.	

Reaction 1.	

	  1.000e+00 moles of the following reaction have been added:

	                 Relative
	Reactant            moles

	CO2                  1.00000

	                 Relative
	Element             moles
	C                    1.00000
	O                    2.00000

----------------------------------User print-----------------------------------

          25   4.2380e+02   6.6909e-01 

-----------------------------------Gas phase-----------------------------------

Total pressure: 507.13      atmospheres          (Peng-Robinson calculation)
    Gas volume:   1.00e+00 liters
  Molar volume:   5.13e-02 liters/mole
   P * Vm / RT:  1.06366  (Compressibility Factor Z) 

                                                        Moles in gas
                                            ----------------------------------
Component         log P           P    phi     Initial       Final       Delta

CO2(g)             1.92   8.333e+01  0.246   2.287e+00   3.202e+00   9.156e-01
Mtg(g)             2.63   4.238e+02  0.669   1.628e+01   1.629e+01   3.000e-03

-----------------------------Solution composition------------------------------

	Elements           Molality       Moles

	C                 3.491e-01   3.491e-01
	Mtg               2.124e-01   2.124e-01

----------------------------Description of solution----------------------------

                                       pH  =   3.289      Charge balance
                                       pe  =  15.176      Adjusted to redox equilibrium
      Specific Conductance (µS/cm,  25°C)  = 207
                          Density (g/cm³)  =   1.01785
                               Volume (L)  =   1.00090
                        Viscosity (mPa s)  =   0.88741
                        Activity of water  =   0.990
                 Ionic strength (mol/kgw)  =   5.265e-04
                       Mass of water (kg)  =   1.000e+00
                 Total alkalinity (eq/kg)  =   1.217e-09
                       Total CO2 (mol/kg)  =   3.491e-01
                         Temperature (°C)  =  25.00
                           Pressure (atm)  = 507.13
                  Electrical balance (eq)  =  -1.217e-09
 Percent error, 100*(Cat-|An|)/(Cat+|An|)  =  -0.00
                               Iterations  =  45 (347 overall)
                                  Total H  = 1.110124e+02
                                  Total O  = 5.620436e+01

----------------------------Distribution of species----------------------------

                                               Log       Log       Log    mole V
   Species          Molality    Activity  Molality  Activity     Gamma   cm³/mol

   H+              5.265e-04   5.137e-04    -3.279    -3.289    -0.011      0.00
   OH-             3.039e-11   2.962e-11   -10.517   -10.528    -0.011     -2.48
   H2O             5.551e+01   9.905e-01     1.744    -0.004     0.000     17.68
C(-4)         0.000e+00
   CH4             0.000e+00   0.000e+00  -124.121  -124.121     0.000     36.02
C(4)          3.491e-01
   CO2             3.442e-01   3.442e-01    -0.463    -0.463     0.000     34.20
   (CO2)2          2.175e-03   2.175e-03    -2.663    -2.663     0.000     68.40
   HCO3-           5.265e-04   5.133e-04    -3.279    -3.290    -0.011     25.14
   CO3-2           8.730e-11   7.890e-11   -10.059   -10.103    -0.044     -0.04
H(0)          0.000e+00
   H2              0.000e+00   0.000e+00   -40.336   -40.336     0.000     28.40
Mtg           2.124e-01
   Mtg             2.124e-01   2.124e-01    -0.673    -0.673     0.000     36.02
O(0)          1.332e-12
   O2              6.658e-13   6.659e-13   -12.177   -12.177     0.000     29.75

------------------------------Saturation indices-------------------------------

  Phase               SI** log IAP   log K(298 K, 507 atm)

  CH4(g)         -121.00   -124.12   -3.13  CH4
  CO2(g)            1.31     -0.46   -1.78  CO2	 Pressure  83.3 atm, phi 0.246
  H2(g)           -36.98    -40.34   -3.36  H2
  H2O(g)           -1.35     -0.00    1.34  H2O
  Mtg(g)            2.45     -0.67   -3.13  Mtg	 Pressure 423.8 atm, phi 0.669
  O2(g)            -9.02    -12.18   -3.16  O2

**For a gas, SI = log10(fugacity). Fugacity = pressure * phi / 1 atm.
  For ideal gases, phi = 1.

Reaction step 10.

WARNING: Numerical method failed, switching to numerical derivatives.
WARNING: Maximum iterations exceeded, 100

WARNING: Numerical method failed with this set of convergence parameters.

WARNING: Trying smaller step size, pe step size 10, 5 ... 

Using solution 1.	pH 7 charge
Using gas phase 6.	
Using reaction 1.	

Reaction 1.	

	  1.000e+00 moles of the following reaction have been added:

	                 Relative
	Reactant            moles

	CO2                  1.00000

	                 Relative
	Element             moles
	C                    1.00000
	O                    2.00000

----------------------------------User print-----------------------------------

          25   4.4298e+02   6.8089e-01 

-----------------------------------Gas phase-----------------------------------

Total pressure: 555.19      atmospheres          (Peng-Robinson calculation)
    Gas volume:   1.00e+00 liters
  Molar volume:   4.90e-02 liters/mole
   P * Vm / RT:  1.11167  (Compressibility Factor Z) 

                                                        Moles in gas
                                            ----------------------------------
Component         log P           P    phi     Initial       Final       Delta

CO2(g)             2.05   1.122e+02  0.238   3.202e+00   4.126e+00   9.234e-01
Mtg(g)             2.65   4.430e+02  0.681   1.629e+01   1.629e+01   2.103e-03

-----------------------------Solution composition------------------------------

	Elements           Molality       Moles

	C                 4.257e-01   4.257e-01
	Mtg               2.103e-01   2.103e-01

----------------------------Description of solution----------------------------

                                       pH  =   3.236      Charge balance
                                       pe  =  16.046      Adjusted to redox equilibrium
      Specific Conductance (µS/cm,  25°C)  = 234
                          Density (g/cm³)  =   1.02053
                               Volume (L)  =   1.00154
                        Viscosity (mPa s)  =   0.88761
                        Activity of water  =   0.989
                 Ionic strength (mol/kgw)  =   5.959e-04
                       Mass of water (kg)  =   1.000e+00
                 Total alkalinity (eq/kg)  =   1.217e-09
                       Total CO2 (mol/kg)  =   4.257e-01
                         Temperature (°C)  =  25.00
                           Pressure (atm)  = 555.19
                  Electrical balance (eq)  =  -1.217e-09
 Percent error, 100*(Cat-|An|)/(Cat+|An|)  =  -0.00
                               Iterations  =  44 (145 overall)
                                  Total H  = 1.110124e+02
                                  Total O  = 5.635765e+01

----------------------------Distribution of species----------------------------

                                               Log       Log       Log    mole V
   Species          Molality    Activity  Molality  Activity     Gamma   cm³/mol

   H+              5.959e-04   5.805e-04    -3.225    -3.236    -0.011      0.00
   OH-             2.788e-11   2.713e-11   -10.555   -10.567    -0.012     -2.35
   H2O             5.551e+01   9.892e-01     1.744    -0.005     0.000     17.65
C(-4)         0.000e+00
   CH4             0.000e+00   0.000e+00  -130.604  -130.604     0.000     36.06
C(4)          4.257e-01
   CO2             4.187e-01   4.187e-01    -0.378    -0.378     0.000     34.18
   (CO2)2          3.218e-03   3.218e-03    -2.492    -2.492     0.000     68.35
   HCO3-           5.959e-04   5.801e-04    -3.225    -3.236    -0.012     25.19
   CO3-2           9.169e-11   8.237e-11   -10.038   -10.084    -0.047      0.29
H(0)          0.000e+00
   H2              0.000e+00   0.000e+00   -41.994   -41.994     0.000     28.38
Mtg           2.103e-01
   Mtg             2.103e-01   2.103e-01    -0.677    -0.677     0.000     36.06
O(0)          2.491e-09
   O2              1.245e-09   1.245e-09    -8.905    -8.905     0.000     29.70

------------------------------Saturation indices-------------------------------

  Phase               SI** log IAP   log K(298 K, 555 atm)

  CH4(g)         -127.45   -130.60   -3.16  CH4
  CO2(g)            1.43     -0.38   -1.80  CO2	 Pressure 112.2 atm, phi 0.238
  H2(g)           -38.61    -41.99   -3.38  H2
  H2O(g)           -1.33     -0.00    1.33  H2O
  Mtg(g)            2.48     -0.68   -3.16  Mtg	 Pressure 443.0 atm, phi 0.681
  O2(g)            -5.72     -8.90   -3.18  O2

**For a gas, SI = log10(fugacity). Fugacity = pressure * phi / 1 atm.
  For ideal gases, phi = 1.

Reaction step 11.

WARNING: Numerical method failed, switching to numerical derivatives.
WARNING: Maximum iterations exceeded, 100

WARNING: Numerical method failed with this set of convergence parameters.

WARNING: Trying smaller step size, pe step size 10, 5 ... 

Using solution 1.	pH 7 charge
Using gas phase 6.	
Using reaction 1.	

Reaction 1.	

	  1.000e+00 moles of the following reaction have been added:

	                 Relative
	Reactant            moles

	CO2                  1.00000

	                 Relative
	Element             moles
	C                    1.00000
	O                    2.00000

----------------------------------User print-----------------------------------

          25   4.6771e+02   6.9844e-01 

-----------------------------------Gas phase-----------------------------------

Total pressure: 612.86      atmospheres          (Peng-Robinson calculation)
    Gas volume:   1.00e+00 liters
  Molar volume:   4.69e-02 liters/mole
   P * Vm / RT:  1.17363  (Compressibility Factor Z) 

                                                        Moles in gas
                                            ----------------------------------
Component         log P           P    phi     Initial       Final       Delta

CO2(g)             2.16   1.451e+02  0.232   4.126e+00   5.055e+00   9.295e-01
Mtg(g)             2.67   4.677e+02  0.698   1.629e+01   1.629e+01   1.349e-03

-----------------------------Solution composition------------------------------

	Elements           Molality       Moles

	C                 4.963e-01   4.962e-01
	Mtg               2.089e-01   2.089e-01

----------------------------Description of solution----------------------------

                                       pH  =   3.191      Charge balance
                                       pe  =  16.091      Adjusted to redox equilibrium
      Specific Conductance (µS/cm,  25°C)  = 260
                          Density (g/cm³)  =   1.02350
                               Volume (L)  =   1.00165
                        Viscosity (mPa s)  =   0.88795
                        Activity of water  =   0.988
                 Ionic strength (mol/kgw)  =   6.625e-04
                       Mass of water (kg)  =   1.000e+00
                 Total alkalinity (eq/kg)  =   1.217e-09
                       Total CO2 (mol/kg)  =   4.963e-01
                         Temperature (°C)  =  25.00
                           Pressure (atm)  = 612.86
                  Electrical balance (eq)  =  -1.217e-09
 Percent error, 100*(Cat-|An|)/(Cat+|An|)  =  -0.00
                               Iterations  =  48 (149 overall)
                                  Total H  = 1.110124e+02
                                  Total O  = 5.649872e+01

----------------------------Distribution of species----------------------------

                                               Log       Log       Log    mole V
   Species          Molality    Activity  Molality  Activity     Gamma   cm³/mol

   H+              6.625e-04   6.446e-04    -3.179    -3.191    -0.012      0.00
   OH-             2.619e-11   2.546e-11   -10.582   -10.594    -0.012     -2.20
   H2O             5.551e+01   9.881e-01     1.744    -0.005     0.000     17.60
C(-4)         0.000e+00
   CH4             0.000e+00   0.000e+00  -130.566  -130.566     0.000     36.11
C(4)          4.963e-01
   CO2             4.869e-01   4.869e-01    -0.313    -0.313     0.000     34.15
   (CO2)2          4.352e-03   4.352e-03    -2.361    -2.361     0.000     68.30
   HCO3-           6.625e-04   6.441e-04    -3.179    -3.191    -0.012     25.25
   CO3-2           9.695e-11   8.664e-11   -10.013   -10.062    -0.049      0.68
H(0)          0.000e+00
   H2              0.000e+00   0.000e+00   -42.021   -42.021     0.000     28.36
Mtg           2.089e-01
   Mtg             2.089e-01   2.090e-01    -0.680    -0.680     0.000     36.11
O(0)          2.491e-09
   O2              1.245e-09   1.245e-09    -8.905    -8.905     0.000     29.64

------------------------------Saturation indices-------------------------------

  Phase               SI** log IAP   log K(298 K, 613 atm)

  CH4(g)         -127.37   -130.57   -3.19  CH4
  CO2(g)            1.53     -0.31   -1.84  CO2	 Pressure 145.1 atm, phi 0.232
  H2(g)           -38.61    -42.02   -3.41  H2
  H2O(g)           -1.32     -0.01    1.31  H2O
  Mtg(g)            2.51     -0.68   -3.19  Mtg	 Pressure 467.7 atm, phi 0.698
  O2(g)            -5.69     -8.90   -3.21  O2

**For a gas, SI = log10(fugacity). Fugacity = pressure * phi / 1 atm.
  For ideal gases, phi = 1.

Reaction step 12.

WARNING: Numerical method failed, switching to numerical derivatives.
WARNING: Maximum iterations exceeded, 100

WARNING: Numerical method failed with this set of convergence parameters.

WARNING: Trying smaller step size, pe step size 10, 5 ... 

Using solution 1.	pH 7 charge
Using gas phase 6.	
Using reaction 1.	

Reaction 1.	

	  1.000e+00 moles of the following reaction have been added:

	                 Relative
	Reactant            moles

	CO2                  1.00000

	                 Relative
	Element             moles
	C                    1.00000
	O                    2.00000

----------------------------------User print-----------------------------------

          25   4.9898e+02   7.2394e-01 

-----------------------------------Gas phase-----------------------------------

Total pressure: 682.45      atmospheres          (Peng-Robinson calculation)
    Gas volume:   1.00e+00 liters
  Molar volume:   4.49e-02 liters/mole
   P * Vm / RT:  1.25203  (Compressibility Factor Z) 

                                                        Moles in gas
                                            ----------------------------------
Component         log P           P    phi     Initial       Final       Delta

CO2(g)             2.26   1.835e+02  0.228   5.055e+00   5.989e+00   9.343e-01
Mtg(g)             2.70   4.990e+02  0.724   1.629e+01   1.629e+01   7.612e-04

-----------------------------Solution composition------------------------------

	Elements           Molality       Moles

	C                 5.620e-01   5.620e-01
	Mtg               2.082e-01   2.082e-01

----------------------------Description of solution----------------------------

                                       pH  =   3.149      Charge balance
                                       pe  =  16.131      Adjusted to redox equilibrium
      Specific Conductance (µS/cm,  25°C)  = 286
                          Density (g/cm³)  =   1.02684
                               Volume (L)  =   1.00120
                        Viscosity (mPa s)  =   0.88850
                        Activity of water  =   0.987
                 Ionic strength (mol/kgw)  =   7.302e-04
                       Mass of water (kg)  =   1.000e+00
                 Total alkalinity (eq/kg)  =   1.217e-09
                       Total CO2 (mol/kg)  =   5.620e-01
                         Temperature (°C)  =  25.00
                           Pressure (atm)  = 682.45
                  Electrical balance (eq)  =  -1.217e-09
 Percent error, 100*(Cat-|An|)/(Cat+|An|)  =  -0.00
                               Iterations  =  44 (145 overall)
                                  Total H  = 1.110124e+02
                                  Total O  = 5.663019e+01

----------------------------Distribution of species----------------------------

                                               Log       Log       Log    mole V
   Species          Molality    Activity  Molality  Activity     Gamma   cm³/mol

   H+              7.302e-04   7.097e-04    -3.137    -3.149    -0.012      0.00
   OH-             2.502e-11   2.428e-11   -10.602   -10.615    -0.013     -2.02
   H2O             5.551e+01   9.870e-01     1.744    -0.006     0.000     17.56
C(-4)         0.000e+00
   CH4             0.000e+00   0.000e+00  -130.547  -130.547     0.000     36.16
C(4)          5.620e-01
   CO2             5.502e-01   5.502e-01    -0.260    -0.259     0.000     34.12
   (CO2)2          5.556e-03   5.557e-03    -2.255    -2.255     0.000     68.24
   HCO3-           7.302e-04   7.091e-04    -3.137    -3.149    -0.013     25.32
   CO3-2           1.034e-10   9.194e-11    -9.986   -10.037    -0.051      1.13
H(0)          0.000e+00
   H2              0.000e+00   0.000e+00   -42.053   -42.053     0.000     28.34
Mtg           2.082e-01
   Mtg             2.082e-01   2.082e-01    -0.682    -0.682     0.000     36.16
O(0)          2.491e-09
   O2              1.245e-09   1.245e-09    -8.905    -8.905     0.000     29.57

------------------------------Saturation indices-------------------------------

  Phase               SI** log IAP   log K(298 K, 682 atm)

  CH4(g)         -127.31   -130.55   -3.24  CH4
  CO2(g)            1.62     -0.26   -1.88  CO2	 Pressure 183.5 atm, phi 0.228
  H2(g)           -38.61    -42.05   -3.44  H2
  H2O(g)           -1.30     -0.01    1.29  H2O
  Mtg(g)            2.56     -0.68   -3.24  Mtg	 Pressure 499.0 atm, phi 0.724
  O2(g)            -5.65     -8.90   -3.25  O2

**For a gas, SI = log10(fugacity). Fugacity = pressure * phi / 1 atm.
  For ideal gases, phi = 1.

Reaction step 13.

WARNING: Numerical method failed, switching to numerical derivatives.
WARNING: Maximum iterations exceeded, 100

WARNING: Numerical method failed with this set of convergence parameters.

WARNING: Trying smaller step size, pe step size 10, 5 ... 

Using solution 1.	pH 7 charge
Using gas phase 6.	
Using reaction 1.	

Reaction 1.	

	  1.000e+00 moles of the following reaction have been added:

	                 Relative
	Reactant            moles

	CO2                  1.00000

	                 Relative
	Element             moles
	C                    1.00000
	O                    2.00000

----------------------------------User print-----------------------------------

          25   5.3806e+02   7.6070e-01 

-----------------------------------Gas phase-----------------------------------

Total pressure: 766.87      atmospheres          (Peng-Robinson calculation)
    Gas volume:   1.00e+00 liters
  Molar volume:   4.31e-02 liters/mole
   P * Vm / RT:  1.35005  (Compressibility Factor Z) 

                                                        Moles in gas
                                            ----------------------------------
Component         log P           P    phi     Initial       Final       Delta

CO2(g)             2.36   2.288e+02  0.228   5.989e+00   6.927e+00   9.380e-01
Mtg(g)             2.73   5.381e+02  0.761   1.629e+01   1.629e+01   3.734e-04

-----------------------------Solution composition------------------------------

	Elements           Molality       Moles

	C                 6.240e-01   6.240e-01
	Mtg               2.078e-01   2.078e-01

----------------------------Description of solution----------------------------

                                       pH  =   3.108      Charge balance
                                       pe  =  16.170      Adjusted to redox equilibrium
      Specific Conductance (µS/cm,  25°C)  = 314
                          Density (g/cm³)  =   1.03067
                               Volume (L)  =   1.00012
                        Viscosity (mPa s)  =   0.88937
                        Activity of water  =   0.986
                 Ionic strength (mol/kgw)  =   8.027e-04
                       Mass of water (kg)  =   1.000e+00
                 Total alkalinity (eq/kg)  =   1.217e-09
                       Total CO2 (mol/kg)  =   6.240e-01
                         Temperature (°C)  =  25.00
                           Pressure (atm)  = 766.87
                  Electrical balance (eq)  =  -1.217e-09
 Percent error, 100*(Cat-|An|)/(Cat+|An|)  =  -0.00
                               Iterations  =  49 (150 overall)
                                  Total H  = 1.110124e+02
                                  Total O  = 5.675415e+01

----------------------------Distribution of species----------------------------

                                               Log       Log       Log    mole V
   Species          Molality    Activity  Molality  Activity     Gamma   cm³/mol

   H+              8.027e-04   7.792e-04    -3.095    -3.108    -0.013      0.00
   OH-             2.418e-11   2.344e-11   -10.617   -10.630    -0.014     -1.81
   H2O             5.551e+01   9.860e-01     1.744    -0.006     0.000     17.50
C(-4)         0.000e+00
   CH4             0.000e+00   0.000e+00  -130.543  -130.543     0.000     36.23
C(4)          6.240e-01
   CO2             6.095e-01   6.096e-01    -0.215    -0.215     0.000     34.09
   (CO2)2          6.820e-03   6.821e-03    -2.166    -2.166     0.000     68.17
   HCO3-           8.027e-04   7.785e-04    -3.095    -3.109    -0.013     25.41
   CO3-2           1.114e-10   9.858e-11    -9.953   -10.006    -0.053      1.65
H(0)          0.000e+00
   H2              0.000e+00   0.000e+00   -42.091   -42.091     0.000     28.32
Mtg           2.078e-01
   Mtg             2.078e-01   2.078e-01    -0.682    -0.682     0.000     36.23
O(0)          2.491e-09
   O2              1.245e-09   1.246e-09    -8.905    -8.905     0.000     29.49

------------------------------Saturation indices-------------------------------

  Phase               SI** log IAP   log K(298 K, 767 atm)

  CH4(g)         -127.25   -130.54   -3.29  CH4
  CO2(g)            1.72     -0.21   -1.93  CO2	 Pressure 228.8 atm, phi 0.228
  H2(g)           -38.61    -42.09   -3.49  H2
  H2O(g)           -1.27     -0.01    1.26  H2O
  Mtg(g)            2.61     -0.68   -3.29  Mtg	 Pressure 538.1 atm, phi 0.761
  O2(g)            -5.61     -8.90   -3.29  O2

**For a gas, SI = log10(fugacity). Fugacity = pressure * phi / 1 atm.
  For ideal gases, phi = 1.

Reaction step 14.

WARNING: Numerical method failed, switching to numerical derivatives.
WARNING: Maximum iterations exceeded, 100

WARNING: Numerical method failed with this set of convergence parameters.

WARNING: Trying smaller step size, pe step size 10, 5 ... 

Using solution 1.	pH 7 charge
Using gas phase 6.	
Using reaction 1.	

Reaction 1.	

	  1.000e+00 moles of the following reaction have been added:

	                 Relative
	Reactant            moles

	CO2                  1.00000

	                 Relative
	Element             moles
	C                    1.00000
	O                    2.00000

----------------------------------User print-----------------------------------

          25   5.8659e+02   8.1386e-01 

-----------------------------------Gas phase-----------------------------------

Total pressure: 869.92      atmospheres          (Peng-Robinson calculation)
    Gas volume:   1.00e+00 liters
  Molar volume:   4.14e-02 liters/mole
   P * Vm / RT:  1.47179  (Compressibility Factor Z) 

                                                        Moles in gas
                                            ----------------------------------
Component         log P           P    phi     Initial       Final       Delta

CO2(g)             2.45   2.833e+02  0.231   6.927e+00   7.868e+00   9.410e-01
Mtg(g)             2.77   5.866e+02  0.814   1.629e+01   1.629e+01   2.407e-04

-----------------------------Solution composition------------------------------

	Elements           Molality       Moles

	C                 6.829e-01   6.829e-01
	Mtg               2.075e-01   2.075e-01

----------------------------Description of solution----------------------------

                                       pH  =   3.067      Charge balance
                                       pe  =  16.209      Adjusted to redox equilibrium
      Specific Conductance (µS/cm,  25°C)  = 345
                          Density (g/cm³)  =   1.03511
                               Volume (L)  =   0.99833
                        Viscosity (mPa s)  =   0.89074
                        Activity of water  =   0.985
                 Ionic strength (mol/kgw)  =   8.838e-04
                       Mass of water (kg)  =   1.000e+00
                 Total alkalinity (eq/kg)  =   1.217e-09
                       Total CO2 (mol/kg)  =   6.829e-01
                         Temperature (°C)  =  25.00
                           Pressure (atm)  = 869.92
                  Electrical balance (eq)  =  -1.217e-09
 Percent error, 100*(Cat-|An|)/(Cat+|An|)  =  -0.00
                               Iterations  =  49 (150 overall)
                                  Total H  = 1.110124e+02
                                  Total O  = 5.687205e+01

----------------------------Distribution of species----------------------------

                                               Log       Log       Log    mole V
   Species          Molality    Activity  Molality  Activity     Gamma   cm³/mol

   H+              8.838e-04   8.569e-04    -3.054    -3.067    -0.013      0.00
   OH-             2.360e-11   2.284e-11   -10.627   -10.641    -0.014     -1.57
   H2O             5.551e+01   9.850e-01     1.744    -0.007     0.000     17.43
C(-4)         0.000e+00
   CH4             0.000e+00   0.000e+00  -130.554  -130.554     0.000     36.30
C(4)          6.829e-01
   CO2             6.658e-01   6.659e-01    -0.177    -0.177     0.000     34.04
   (CO2)2          8.136e-03   8.138e-03    -2.090    -2.089     0.000     68.08
   HCO3-           8.838e-04   8.560e-04    -3.054    -3.068    -0.014     25.51
   CO3-2           1.216e-10   1.070e-10    -9.915    -9.971    -0.055      2.25
H(0)          0.000e+00
   H2              0.000e+00   0.000e+00   -42.139   -42.138     0.000     28.29
Mtg           2.075e-01
   Mtg             2.075e-01   2.076e-01    -0.683    -0.683     0.000     36.30
O(0)          2.491e-09
   O2              1.245e-09   1.246e-09    -8.905    -8.905     0.000     29.40

------------------------------Saturation indices-------------------------------

  Phase               SI** log IAP   log K(298 K, 870 atm)

  CH4(g)         -127.19   -130.55   -3.36  CH4
  CO2(g)            1.82     -0.18   -1.99  CO2	 Pressure 283.3 atm, phi 0.231
  H2(g)           -38.60    -42.14   -3.54  H2
  H2O(g)           -1.24     -0.01    1.23  H2O
  Mtg(g)            2.68     -0.68   -3.36  Mtg	 Pressure 586.6 atm, phi 0.814
  O2(g)            -5.56     -8.90   -3.35  O2

**For a gas, SI = log10(fugacity). Fugacity = pressure * phi / 1 atm.
  For ideal gases, phi = 1.

Reaction step 15.

WARNING: Numerical method failed, switching to numerical derivatives.
WARNING: Maximum iterations exceeded, 100

WARNING: Numerical method failed with this set of convergence parameters.

WARNING: Trying smaller step size, pe step size 10, 5 ... 

Using solution 1.	pH 7 charge
Using gas phase 6.	
Using reaction 1.	

Reaction 1.	

	  1.000e+00 moles of the following reaction have been added:

	                 Relative
	Reactant            moles

	CO2                  1.00000

	                 Relative
	Element             moles
	C                    1.00000
	O                    2.00000

----------------------------------User print-----------------------------------

          25   6.4676e+02   8.9170e-01 

-----------------------------------Gas phase-----------------------------------

Total pressure: 996.61      atmospheres          (Peng-Robinson calculation)
    Gas volume:   1.00e+00 liters
  Molar volume:   3.98e-02 liters/mole
   P * Vm / RT:  1.62273  (Compressibility Factor Z) 

                                                        Moles in gas
                                            ----------------------------------
Component         log P           P    phi     Initial       Final       Delta

CO2(g)             2.54   3.499e+02  0.241   7.868e+00   8.812e+00   9.437e-01
Mtg(g)             2.81   6.468e+02  0.892   1.629e+01   1.629e+01   4.448e-04

-----------------------------Solution composition------------------------------

	Elements           Molality       Moles

	C                 7.393e-01   7.393e-01
	Mtg               2.071e-01   2.071e-01

----------------------------Description of solution----------------------------

                                       pH  =   3.023      Charge balance
                                       pe  =  16.250      Adjusted to redox equilibrium
      Specific Conductance (µS/cm,  25°C)  = 381
                          Density (g/cm³)  =   1.04035
                               Volume (L)  =   0.99568
                        Viscosity (mPa s)  =   0.89288
                        Activity of water  =   0.984
                 Ionic strength (mol/kgw)  =   9.784e-04
                       Mass of water (kg)  =   1.000e+00
                 Total alkalinity (eq/kg)  =   1.217e-09
                       Total CO2 (mol/kg)  =   7.393e-01
                         Temperature (°C)  =  25.00
                           Pressure (atm)  = 996.61
                  Electrical balance (eq)  =  -1.217e-09
 Percent error, 100*(Cat-|An|)/(Cat+|An|)  =  -0.00
                               Iterations  =  50 (151 overall)
                                  Total H  = 1.110124e+02
                                  Total O  = 5.698474e+01

----------------------------Distribution of species----------------------------

                                               Log       Log       Log    mole V
   Species          Molality    Activity  Molality  Activity     Gamma   cm³/mol

   H+              9.784e-04   9.474e-04    -3.009    -3.023    -0.014      0.00
   OH-             2.322e-11   2.244e-11   -10.634   -10.649    -0.015     -1.28
   H2O             5.551e+01   9.841e-01     1.744    -0.007     0.000     17.35
C(-4)         0.000e+00
   CH4             0.000e+00   0.000e+00  -130.582  -130.582     0.000     36.37
C(4)          7.393e-01
   CO2             7.193e-01   7.194e-01    -0.143    -0.143     0.000     33.99
   (CO2)2          9.498e-03   9.500e-03    -2.022    -2.022     0.000     67.98
   HCO3-           9.784e-04   9.463e-04    -3.009    -3.024    -0.014     25.62
   CO3-2           1.346e-10   1.178e-10    -9.871    -9.929    -0.058      2.95
H(0)          0.000e+00
   H2              0.000e+00   0.000e+00   -42.196   -42.196     0.000     28.26
Mtg           2.071e-01
   Mtg             2.071e-01   2.071e-01    -0.684    -0.684     0.000     36.37
O(0)          2.491e-09
   O2              1.245e-09   1.246e-09    -8.905    -8.905     0.000     29.29

------------------------------Saturation indices-------------------------------

  Phase               SI** log IAP   log K(298 K, 997 atm)

  CH4(g)         -127.14   -130.58   -3.44  CH4
  CO2(g)            1.93     -0.14   -2.07  CO2	 Pressure 349.9 atm, phi 0.241
  H2(g)           -38.60    -42.20   -3.60  H2
  H2O(g)           -1.20     -0.01    1.20  H2O
  Mtg(g)            2.76     -0.68   -3.44  Mtg	 Pressure 646.8 atm, phi 0.892
  O2(g)            -5.49     -8.90   -3.41  O2

**For a gas, SI = log10(fugacity). Fugacity = pressure * phi / 1 atm.
  For ideal gases, phi = 1.

Reaction step 16.

WARNING: Numerical method failed, switching to numerical derivatives.
WARNING: Maximum iterations exceeded, 100

WARNING: Numerical method failed with this set of convergence parameters.

WARNING: Trying smaller step size, pe step size 10, 5 ... 

Using solution 1.	pH 7 charge
Using gas phase 6.	
Using reaction 1.	

Reaction 1.	

	  1.000e+00 moles of the following reaction have been added:

	                 Relative
	Reactant            moles

	CO2                  1.00000

	                 Relative
	Element             moles
	C                    1.00000
	O                    2.00000

----------------------------------User print-----------------------------------

          25   7.2157e+02   1.0083e+00 

-----------------------------------Gas phase-----------------------------------

Total pressure: 1153.77      atmospheres          (Peng-Robinson calculation)
    Gas volume:   1.00e+00 liters
  Molar volume:   3.84e-02 liters/mole
   P * Vm / RT:  1.81031  (Compressibility Factor Z) 

                                                        Moles in gas
                                            ----------------------------------
Component         log P           P    phi     Initial       Final       Delta

CO2(g)             2.64   4.322e+02  0.259   8.812e+00   9.758e+00   9.462e-01
Mtg(g)             2.86   7.216e+02  1.008   1.629e+01   1.629e+01   1.105e-03

-----------------------------Solution composition------------------------------

	Elements           Molality       Moles

	C                 7.931e-01   7.931e-01
	Mtg               2.060e-01   2.060e-01

----------------------------Description of solution----------------------------

                                       pH  =   2.976      Charge balance
                                       pe  =  16.294      Adjusted to redox equilibrium
      Specific Conductance (µS/cm,  25°C)  = 424
                          Density (g/cm³)  =   1.04663
                               Volume (L)  =   0.99195
                        Viscosity (mPa s)  =   0.89626
                        Activity of water  =   0.983
                 Ionic strength (mol/kgw)  =   1.093e-03
                       Mass of water (kg)  =   1.000e+00
                 Total alkalinity (eq/kg)  =   1.217e-09
                       Total CO2 (mol/kg)  =   7.931e-01
                         Temperature (°C)  =  25.00
                           Pressure (atm)  = 1153.77
                  Electrical balance (eq)  =  -1.217e-09
 Percent error, 100*(Cat-|An|)/(Cat+|An|)  =  -0.00
                               Iterations  =  49 (150 overall)
                                  Total H  = 1.110124e+02
                                  Total O  = 5.709233e+01

----------------------------Distribution of species----------------------------

                                               Log       Log       Log    mole V
   Species          Molality    Activity  Molality  Activity     Gamma   cm³/mol

   H+              1.093e-03   1.057e-03    -2.961    -2.976    -0.015      0.00
   OH-             2.301e-11   2.221e-11   -10.638   -10.654    -0.015     -0.96
   H2O             5.551e+01   9.832e-01     1.744    -0.007     0.000     17.25
C(-4)         0.000e+00
   CH4             0.000e+00   0.000e+00  -130.628  -130.628     0.000     36.46
C(4)          7.931e-01
   CO2             7.702e-01   7.703e-01    -0.113    -0.113     0.000     33.93
   (CO2)2          1.089e-02   1.089e-02    -1.963    -1.963     0.000     67.85
   HCO3-           1.093e-03   1.056e-03    -2.961    -2.977    -0.015     25.76
   CO3-2           1.518e-10   1.320e-10    -9.819    -9.879    -0.061      3.77
H(0)          0.000e+00
   H2              0.000e+00   0.000e+00   -42.268   -42.268     0.000     28.22
Mtg           2.060e-01
   Mtg             2.060e-01   2.060e-01    -0.686    -0.686     0.000     36.46
O(0)          2.491e-09
   O2              1.245e-09   1.246e-09    -8.905    -8.905     0.000     29.17

------------------------------Saturation indices-------------------------------

  Phase               SI** log IAP   log K(298 K, 1154 atm)

  CH4(g)         -127.08   -130.63   -3.55  CH4
  CO2(g)            2.05     -0.11   -2.16  CO2	 Pressure 432.2 atm, phi 0.259
  H2(g)           -38.59    -42.27   -3.68  H2
  H2O(g)           -1.16     -0.01    1.15  H2O
  Mtg(g)            2.86     -0.69   -3.55  Mtg	 Pressure 721.6 atm, phi 1.008
  O2(g)            -5.42     -8.90   -3.49  O2

**For a gas, SI = log10(fugacity). Fugacity = pressure * phi / 1 atm.
  For ideal gases, phi = 1.

Reaction step 17.

WARNING: Numerical method failed, switching to numerical derivatives.
WARNING: Maximum iterations exceeded, 100

WARNING: Numerical method failed with this set of convergence parameters.

WARNING: Trying smaller step size, pe step size 10, 5 ... 

Using solution 1.	pH 7 charge
Using gas phase 6.	
Using reaction 1.	

Reaction 1.	

	  1.000e+00 moles of the following reaction have been added:

	                 Relative
	Reactant            moles

	CO2                  1.00000

	                 Relative
	Element             moles
	C                    1.00000
	O                    2.00000

----------------------------------User print-----------------------------------

          25   8.1525e+02   1.1897e+00 

-----------------------------------Gas phase-----------------------------------

Total pressure: 1350.98      atmospheres          (Peng-Robinson calculation)
    Gas volume:   1.00e+00 liters
  Molar volume:   3.70e-02 liters/mole
   P * Vm / RT:  2.04503  (Compressibility Factor Z) 

                                                        Moles in gas
                                            ----------------------------------
Component         log P           P    phi     Initial       Final       Delta

CO2(g)             2.73   5.357e+02  0.291   9.758e+00   1.071e+01   9.492e-01
Mtg(g)             2.91   8.152e+02  1.190   1.629e+01   1.629e+01   2.393e-03

-----------------------------Solution composition------------------------------

	Elements           Molality       Moles

	C                 8.439e-01   8.439e-01
	Mtg               2.036e-01   2.036e-01

----------------------------Description of solution----------------------------

                                       pH  =   2.923      Charge balance
                                       pe  =  16.344      Adjusted to redox equilibrium
      Specific Conductance (µS/cm,  25°C)  = 477
                          Density (g/cm³)  =   1.05436
                               Volume (L)  =   0.98677
                        Viscosity (mPa s)  =   0.90173
                        Activity of water  =   0.982
                 Ionic strength (mol/kgw)  =   1.237e-03
                       Mass of water (kg)  =   1.000e+00
                 Total alkalinity (eq/kg)  =   1.217e-09
                       Total CO2 (mol/kg)  =   8.439e-01
                         Temperature (°C)  =  25.00
                           Pressure (atm)  = 1350.98
                  Electrical balance (eq)  =  -1.217e-09
 Percent error, 100*(Cat-|An|)/(Cat+|An|)  =  -0.00
                               Iterations  =  46 (147 overall)
                                  Total H  = 1.110124e+02
                                  Total O  = 5.719394e+01

----------------------------Distribution of species----------------------------

                                               Log       Log       Log    mole V
   Species          Molality    Activity  Molality  Activity     Gamma   cm³/mol

   H+              1.237e-03   1.194e-03    -2.908    -2.923    -0.015      0.00
   OH-             2.296e-11   2.212e-11   -10.639   -10.655    -0.016     -0.58
   H2O             5.551e+01   9.824e-01     1.744    -0.008     0.000     17.13
C(-4)         0.000e+00
   CH4             0.000e+00   0.000e+00  -130.698  -130.698     0.000     36.55
C(4)          8.439e-01
   CO2             8.181e-01   8.182e-01    -0.087    -0.087     0.000     33.85
   (CO2)2          1.229e-02   1.229e-02    -1.911    -1.910     0.000     67.70
[...]
   H2O             5.551e+01   9.870e-01     1.744    -0.006     0.000     17.86
C(-4)         0.000e+00
   CH4             0.000e+00   0.000e+00  -104.441  -104.440     0.000     38.89
C(4)          6.290e-01
   CO2             5.847e-01   5.848e-01    -0.233    -0.233     0.000     35.81
   (CO2)2          2.176e-02   2.176e-02    -1.662    -1.662     0.000     71.63
   HCO3-           7.963e-04   7.703e-04    -3.099    -3.113    -0.014     27.03
   CO3-2           1.706e-10   1.493e-10    -9.768    -9.826    -0.058      3.15
H(0)          1.347e-34
   H2              6.733e-35   6.734e-35   -34.172   -34.172     0.000     28.27
Mtg           1.567e-01
   Mtg             1.567e-01   1.568e-01    -0.805    -0.805     0.000     38.89
O(0)          2.640e-11
   O2              1.320e-11   1.320e-11   -10.880   -10.879     0.000     31.17

------------------------------Saturation indices-------------------------------

  Phase               SI** log IAP   log K(348 K, 824 atm)

  CH4(g)         -100.94   -104.44   -3.50  CH4
  CO2(g)            2.09     -0.23   -2.32  CO2	 Pressure 304.8 atm, phi 0.402
  H2(g)           -30.69    -34.17   -3.49  H2
  H2O(g)           -0.21     -0.01    0.20  H2O
  Mtg(g)            2.69     -0.80   -3.50  Mtg	 Pressure 519.1 atm, phi 0.954
  O2(g)            -7.39    -10.88   -3.49  O2

**For a gas, SI = log10(fugacity). Fugacity = pressure * phi / 1 atm.
  For ideal gases, phi = 1.

Reaction step 15.

WARNING: Numerical method failed, switching to numerical derivatives.
WARNING: Maximum iterations exceeded, 100

WARNING: Numerical method failed with this set of convergence parameters.

WARNING: Trying smaller step size, pe step size 10, 5 ... 

Using solution 1.	pH 7 charge
Using gas phase 6.	
Using reaction 1.	

Reaction 1.	

	  1.000e+00 moles of the following reaction have been added:

	                 Relative
	Reactant            moles

	CO2                  1.00000

	                 Relative
	Element             moles
	C                    1.00000
	O                    2.00000

----------------------------------User print-----------------------------------

          75   5.5590e+02   1.0117e+00 

-----------------------------------Gas phase-----------------------------------

Total pressure: 921.10      atmospheres          (Peng-Robinson calculation)
    Gas volume:   1.00e+00 liters
  Molar volume:   4.48e-02 liters/mole
   P * Vm / RT:  1.44337  (Compressibility Factor Z) 

                                                        Moles in gas
                                            ----------------------------------
Component         log P           P    phi     Initial       Final       Delta

CO2(g)             2.56   3.652e+02  0.411   7.915e+00   8.856e+00   9.413e-01
Mtg(g)             2.74   5.559e+02  1.012   1.348e+01   1.348e+01   6.942e-04

-----------------------------Solution composition------------------------------

	Elements           Molality       Moles

	C                 6.877e-01   6.877e-01
	Mtg               1.560e-01   1.560e-01

----------------------------Description of solution----------------------------

                                       pH  =   3.079      Charge balance
                                       pe  =  12.161      Adjusted to redox equilibrium
      Specific Conductance (µS/cm,  75°C)  = 501
                          Density (g/cm³)  =   1.01389
                               Volume (L)  =   1.01862
                        Viscosity (mPa s)  =   0.40255
                        Activity of water  =   0.986
                 Ionic strength (mol/kgw)  =   8.634e-04
                       Mass of water (kg)  =   1.000e+00
                 Total alkalinity (eq/kg)  =   1.955e-06
                       Total CO2 (mol/kg)  =   6.877e-01
                         Temperature (°C)  =  75.00
                           Pressure (atm)  = 921.10
                  Electrical balance (eq)  =  -1.955e-06
 Percent error, 100*(Cat-|An|)/(Cat+|An|)  =  -0.11
                               Iterations  =  49 (150 overall)
                                  Total H  = 1.110124e+02
                                  Total O  = 5.688165e+01

----------------------------Distribution of species----------------------------

                                               Log       Log       Log    mole V
   Species          Molality    Activity  Molality  Activity     Gamma   cm³/mol

   H+              8.625e-04   8.342e-04    -3.064    -3.079    -0.014      0.00
   OH-             5.544e-10   5.353e-10    -9.256    -9.271    -0.015     -6.77
   H2O             5.551e+01   9.861e-01     1.744    -0.006     0.000     17.80
C(-4)         0.000e+00
   CH4             0.000e+00   0.000e+00  -104.448  -104.447     0.000     38.87
C(4)          6.877e-01
   CO2             6.355e-01   6.356e-01    -0.197    -0.197     0.000     35.70
   (CO2)2          2.570e-02   2.570e-02    -1.590    -1.590     0.000     71.39
   HCO3-           8.644e-04   8.351e-04    -3.063    -3.078    -0.015     27.19
   CO3-2           1.826e-10   1.591e-10    -9.738    -9.798    -0.060      3.85
H(0)          1.233e-34
   H2              6.166e-35   6.167e-35   -34.210   -34.210     0.000     28.25
Mtg           1.560e-01
   Mtg             1.560e-01   1.561e-01    -0.807    -0.807     0.000     38.87
O(0)          2.639e-11
   O2              1.320e-11   1.320e-11   -10.880   -10.879     0.000     31.01

------------------------------Saturation indices-------------------------------

  Phase               SI** log IAP   log K(348 K, 921 atm)

  CH4(g)         -100.89   -104.45   -3.56  CH4
  CO2(g)            2.18     -0.20   -2.37  CO2	 Pressure 365.2 atm, phi 0.411
  H2(g)           -30.68    -34.21   -3.53  H2
  H2O(g)           -0.18     -0.01    0.17  H2O
  Mtg(g)            2.75     -0.81   -3.56  Mtg	 Pressure 555.9 atm, phi 1.012
  O2(g)            -7.35    -10.88   -3.53  O2

**For a gas, SI = log10(fugacity). Fugacity = pressure * phi / 1 atm.
  For ideal gases, phi = 1.

Reaction step 16.

WARNING: Numerical method failed, switching to numerical derivatives.
WARNING: Maximum iterations exceeded, 100

WARNING: Numerical method failed with this set of convergence parameters.

WARNING: Trying smaller step size, pe step size 10, 5 ... 

Using solution 1.	pH 7 charge
Using gas phase 6.	
Using reaction 1.	

Reaction 1.	

	  1.000e+00 moles of the following reaction have been added:

	                 Relative
	Reactant            moles

	CO2                  1.00000

	                 Relative
	Element             moles
	C                    1.00000
	O                    2.00000

----------------------------------User print-----------------------------------

          75   6.0032e+02   1.0900e+00 

-----------------------------------Gas phase-----------------------------------

Total pressure: 1036.63      atmospheres          (Peng-Robinson calculation)
    Gas volume:   1.00e+00 liters
  Molar volume:   4.30e-02 liters/mole
   P * Vm / RT:  1.55862  (Compressibility Factor Z) 

                                                        Moles in gas
                                            ----------------------------------
Component         log P           P    phi     Initial       Final       Delta

CO2(g)             2.64   4.363e+02  0.426   8.856e+00   9.798e+00   9.420e-01
Mtg(g)             2.78   6.003e+02  1.090   1.348e+01   1.348e+01   7.422e-04

-----------------------------Solution composition------------------------------

	Elements           Molality       Moles

	C                 7.457e-01   7.457e-01
	Mtg               1.553e-01   1.553e-01

----------------------------Description of solution----------------------------

                                       pH  =   3.043      Charge balance
                                       pe  =  12.195      Adjusted to redox equilibrium
      Specific Conductance (µS/cm,  75°C)  = 540
                          Density (g/cm³)  =   1.01852
                               Volume (L)  =   1.01648
                        Viscosity (mPa s)  =   0.40576
                        Activity of water  =   0.985
                 Ionic strength (mol/kgw)  =   9.395e-04
                       Mass of water (kg)  =   1.000e+00
                 Total alkalinity (eq/kg)  =   1.955e-06
                       Total CO2 (mol/kg)  =   7.457e-01
                         Temperature (°C)  =  75.00
                           Pressure (atm)  = 1036.63
                  Electrical balance (eq)  =  -1.955e-06
 Percent error, 100*(Cat-|An|)/(Cat+|An|)  =  -0.10
                               Iterations  =  77 (178 overall)
                                  Total H  = 1.110124e+02
                                  Total O  = 5.699759e+01

----------------------------Distribution of species----------------------------

                                               Log       Log       Log    mole V
   Species          Molality    Activity  Molality  Activity     Gamma   cm³/mol

   H+              9.385e-04   9.067e-04    -3.028    -3.043    -0.015      0.00
   OH-             5.661e-10   5.459e-10    -9.247    -9.263    -0.016     -6.97
   H2O             5.551e+01   9.852e-01     1.744    -0.006     0.000     17.73
C(-4)         0.000e+00
   CH4             0.000e+00   0.000e+00  -104.466  -104.466     0.000     38.84
C(4)          7.457e-01
   CO2             6.850e-01   6.851e-01    -0.164    -0.164     0.000     35.56
   (CO2)2          2.986e-02   2.987e-02    -1.525    -1.525     0.000     71.12
   HCO3-           9.405e-04   9.075e-04    -3.027    -3.042    -0.015     27.37
   CO3-2           1.972e-10   1.709e-10    -9.705    -9.767    -0.062      4.65
H(0)          1.111e-34
   H2              5.556e-35   5.557e-35   -34.255   -34.255     0.000     28.22
Mtg           1.553e-01
   Mtg             1.553e-01   1.553e-01    -0.809    -0.809     0.000     38.84
O(0)          2.639e-11
   O2              1.320e-11   1.320e-11   -10.880   -10.879     0.000     30.83

------------------------------Saturation indices-------------------------------

  Phase               SI** log IAP   log K(348 K, 1037 atm)

  CH4(g)         -100.84   -104.47   -3.62  CH4
  CO2(g)            2.27     -0.16   -2.43  CO2	 Pressure 436.3 atm, phi 0.426
  H2(g)           -30.68    -34.26   -3.58  H2
  H2O(g)           -0.15     -0.01    0.14  H2O
  Mtg(g)            2.82     -0.81   -3.62  Mtg	 Pressure 600.3 atm, phi 1.090
  O2(g)            -7.30    -10.88   -3.58  O2

**For a gas, SI = log10(fugacity). Fugacity = pressure * phi / 1 atm.
  For ideal gases, phi = 1.

Reaction step 17.

WARNING: Numerical method failed, switching to numerical derivatives.
WARNING: Maximum iterations exceeded, 100

WARNING: Numerical method failed with this set of convergence parameters.

WARNING: Trying smaller step size, pe step size 10, 5 ... 

Using solution 1.	pH 7 charge
Using gas phase 6.	
Using reaction 1.	

Reaction 1.	

	  1.000e+00 moles of the following reaction have been added:

	                 Relative
	Reactant            moles

	CO2                  1.00000

	                 Relative
	Element             moles
	C                    1.00000
	O                    2.00000

----------------------------------User print-----------------------------------

          75   6.5395e+02   1.1983e+00 

-----------------------------------Gas phase-----------------------------------

Total pressure: 1174.90      atmospheres          (Peng-Robinson calculation)
    Gas volume:   1.00e+00 liters
  Molar volume:   4.13e-02 liters/mole
   P * Vm / RT:  1.69772  (Compressibility Factor Z) 

                                                        Moles in gas
                                            ----------------------------------
Component         log P           P    phi     Initial       Final       Delta

CO2(g)             2.72   5.210e+02  0.451   9.798e+00   1.074e+01   9.425e-01
Mtg(g)             2.82   6.539e+02  1.198   1.348e+01   1.348e+01   9.843e-04

-----------------------------Solution composition------------------------------

	Elements           Molality       Moles

	C                 8.032e-01   8.032e-01
	Mtg               1.543e-01   1.543e-01

----------------------------Description of solution----------------------------

                                       pH  =   3.004      Charge balance
                                       pe  =  12.231      Adjusted to redox equilibrium
      Specific Conductance (µS/cm,  75°C)  = 585
                          Density (g/cm³)  =   1.02383
                               Volume (L)  =   1.01367
                        Viscosity (mPa s)  =   0.40962
                        Activity of water  =   0.984
                 Ionic strength (mol/kgw)  =   1.027e-03
                       Mass of water (kg)  =   1.000e+00
                 Total alkalinity (eq/kg)  =   1.955e-06
                       Total CO2 (mol/kg)  =   8.032e-01
                         Temperature (°C)  =  75.00
                           Pressure (atm)  = 1174.90
                  Electrical balance (eq)  =  -1.955e-06
 Percent error, 100*(Cat-|An|)/(Cat+|An|)  =  -0.10
                               Iterations  = 145 (246 overall)
                                  Total H  = 1.110124e+02
                                  Total O  = 5.711259e+01

----------------------------Distribution of species----------------------------

                                               Log       Log       Log    mole V
   Species          Molality    Activity  Molality  Activity     Gamma   cm³/mol

   H+              1.026e-03   9.898e-04    -2.989    -3.004    -0.015      0.00
   OH-             5.878e-10   5.660e-10    -9.231    -9.247    -0.016     -7.18
   H2O             5.551e+01   9.843e-01     1.744    -0.007     0.000     17.64
C(-4)         0.000e+00
   CH4             0.000e+00   0.000e+00  -104.497  -104.496     0.000     38.81
C(4)          8.032e-01
   CO2             7.337e-01   7.338e-01    -0.135    -0.134     0.000     35.41
   (CO2)2          3.425e-02   3.426e-02    -1.465    -1.465     0.000     70.82
   HCO3-           1.028e-03   9.904e-04    -2.988    -3.004    -0.016     27.57
   CO3-2           2.150e-10   1.855e-10    -9.668    -9.732    -0.064      5.54
H(0)          9.815e-35
   H2              4.908e-35   4.909e-35   -34.309   -34.309     0.000     28.18
Mtg           1.543e-01
   Mtg             1.543e-01   1.543e-01    -0.812    -0.812     0.000     38.81
O(0)          2.638e-11
   O2              1.319e-11   1.319e-11   -10.880   -10.880     0.000     30.63

------------------------------Saturation indices-------------------------------

  Phase               SI** log IAP   log K(348 K, 1175 atm)

  CH4(g)         -100.79   -104.50   -3.71  CH4
  CO2(g)            2.37     -0.13   -2.51  CO2	 Pressure 521.0 atm, phi 0.451
  H2(g)           -30.67    -34.31   -3.64  H2
  H2O(g)           -0.11     -0.01    0.11  H2O
  Mtg(g)            2.89     -0.81   -3.71  Mtg	 Pressure 653.9 atm, phi 1.198
  O2(g)            -7.23    -10.88   -3.64  O2

**For a gas, SI = log10(fugacity). Fugacity = pressure * phi / 1 atm.
  For ideal gases, phi = 1.

Reaction step 18.

WARNING: Numerical method failed, switching to numerical derivatives.
WARNING: Maximum iterations exceeded, 100

WARNING: Numerical method failed with this set of convergence parameters.

WARNING: Trying smaller step size, pe step size 10, 5 ... 

Using solution 1.	pH 7 charge
Using gas phase 6.	
Using reaction 1.	

Reaction 1.	

	  1.000e+00 moles of the following reaction have been added:

	                 Relative
	Reactant            moles

	CO2                  1.00000

	                 Relative
	Element             moles
	C                    1.00000
	O                    2.00000

----------------------------------User print-----------------------------------

          75   7.1889e+02   1.3518e+00 

-----------------------------------Gas phase-----------------------------------

Total pressure: 1341.79      atmospheres          (Peng-Robinson calculation)
    Gas volume:   1.00e+00 liters
  Molar volume:   3.97e-02 liters/mole
   P * Vm / RT:  1.86612  (Compressibility Factor Z) 

                                                        Moles in gas
                                            ----------------------------------
Component         log P           P    phi     Initial       Final       Delta

CO2(g)             2.79   6.229e+02  0.490   1.074e+01   1.168e+01   9.429e-01
Mtg(g)             2.86   7.189e+02  1.352   1.348e+01   1.348e+01   1.472e-03

-----------------------------Solution composition------------------------------

	Elements           Molality       Moles

	C                 8.603e-01   8.603e-01
	Mtg               1.528e-01   1.528e-01

----------------------------Description of solution----------------------------

                                       pH  =   2.964      Charge balance
                                       pe  =  12.269      Adjusted to redox equilibrium
      Specific Conductance (µS/cm,  75°C)  = 636
                          Density (g/cm³)  =   1.02993
                               Volume (L)  =   1.01009
                        Viscosity (mPa s)  =   0.41427
                        Activity of water  =   0.983
                 Ionic strength (mol/kgw)  =   1.129e-03
                       Mass of water (kg)  =   1.000e+00
                 Total alkalinity (eq/kg)  =   1.955e-06
                       Total CO2 (mol/kg)  =   8.603e-01
                         Temperature (°C)  =  75.00
                           Pressure (atm)  = 1341.79
                  Electrical balance (eq)  =  -1.955e-06
 Percent error, 100*(Cat-|An|)/(Cat+|An|)  =  -0.09
                               Iterations  =  49 (150 overall)
                                  Total H  = 1.110124e+02
                                  Total O  = 5.722684e+01

----------------------------Distribution of species----------------------------

                                               Log       Log       Log    mole V
   Species          Molality    Activity  Molality  Activity     Gamma   cm³/mol

   H+              1.128e-03   1.087e-03    -2.948    -2.964    -0.016      0.00
   OH-             6.230e-10   5.990e-10    -9.206    -9.223    -0.017     -7.42
   H2O             5.551e+01   9.834e-01     1.744    -0.007     0.000     17.55
C(-4)         0.000e+00
   CH4             0.000e+00   0.000e+00  -104.542  -104.542     0.000     38.77
C(4)          8.603e-01
   CO2             7.815e-01   7.816e-01    -0.107    -0.107     0.000     35.24
   (CO2)2          3.886e-02   3.887e-02    -1.410    -1.410     0.000     70.48
   HCO3-           1.130e-03   1.088e-03    -2.947    -2.963    -0.017     27.80
   CO3-2           2.371e-10   2.034e-10    -9.625    -9.692    -0.067      6.54
H(0)          8.452e-35
   H2              4.226e-35   4.227e-35   -34.374   -34.374     0.000     28.15
Mtg           1.528e-01
   Mtg             1.528e-01   1.529e-01    -0.816    -0.816     0.000     38.77
O(0)          2.638e-11
   O2              1.319e-11   1.319e-11   -10.880   -10.880     0.000     30.41

------------------------------Saturation indices-------------------------------

  Phase               SI** log IAP   log K(348 K, 1342 atm)

  CH4(g)         -100.74   -104.54   -3.80  CH4
  CO2(g)            2.48     -0.11   -2.59  CO2	 Pressure 622.9 atm, phi 0.490
  H2(g)           -30.67    -34.37   -3.71  H2
  H2O(g)           -0.07     -0.01    0.07  H2O
  Mtg(g)            2.99     -0.82   -3.80  Mtg	 Pressure 718.9 atm, phi 1.352
  O2(g)            -7.16    -10.88   -3.72  O2

**For a gas, SI = log10(fugacity). Fugacity = pressure * phi / 1 atm.
  For ideal gases, phi = 1.

------------------
End of simulation.
------------------

------------------------------------
Reading input data for simulation 4.
------------------------------------

