   Input file: phi_Duan_PR
  Output file: phi_Duan_PR.out
Database file: ../database/Amm.dat

------------------
Reading data base.
------------------

	SOLUTION_MASTER_SPECIES
	SOLUTION_SPECIES
	PHASES
	EXCHANGE_MASTER_SPECIES
	EXCHANGE_SPECIES
	SURFACE_MASTER_SPECIES
	SURFACE_SPECIES
	END
------------------------------------
Reading input data for simulation 1.
------------------------------------

	database ../database/Amm.dat
	SOLUTION 1
	SOLUTION_MASTER_SPECIES
	Amm		AmmH+	0.0	AmmH	17.0
	Mth		Mth	0.0	Mth	16
	Sg		HSg-	1.0	Sg	32
	SOLUTION_SPECIES
	AmmH+ = AmmH+
		gamma	2.5	0.0
		dw	 1.98e-9
		millero 17.47 -3.400e-3 7.600e-4 # From Millero, 1971, d, e and f not reported
	AmmH+ = Amm + H+
		log_k	-9.252
		delta_h 12.48	kcal
		analytical_expression    0.6322    -0.001225     -2835.76
		dw	 2.28e-9
	Mth = Mth
	HSg- = HSg-
		gamma	3.5	0.0
		dw	 1.73e-9
	HSg- = Sg-2 + H+
		log_k	-12.918
		delta_h 12.1	kcal
		gamma	5.0	0.0
		dw	 0.731e-9
	HSg- + H+ = H2Sg
		log_k	6.994
		delta_h -5.30	kcal
		analytical_expression  -11.17   0.02386  3279.0
		dw	 2.1e-9
	PHASES
	Amm(g)
		Amm = Amm
		log_k	   1.7966
		analytical_expression -1.8758e+001 3.3670e-004 2.5113e+003 4.8619e+000 3.9192e+001
		t_c  405.6 # critical T, K
		p_c   111.3 # critical P, atm
		omega 0.25 #  acentric factor
		delta_v 30 # (estimated, not checked)
	CH4(g)
		CH4 = CH4
		log_k	   -2.8502
		analytical_expression -2.4027e+001 4.7146e-003 3.7227e+002 6.4264e+000 2.3362e+005
		T_c  190.6 # critical T, K
		p_c   45.40 # critical P, atm
		omega 0.008 #  acentric factor
		delta_v 33
	Mth(g)
		Mth = Mth
		log_k	   -2.8502
		analytical_expression -2.4027e+001 4.7146e-003 3.7227e+002 6.4264e+000 2.3362e+005
		T_c  190.6 # critical T, K
		p_c   45.40 # critical P, atm
		omega 0.008 #  acentric factor
		delta_v 33
	CO2(g)
		CO2 = CO2
		log_k	-1.468
		delta_h  -4.776 kcal
		analytical_expression	108.3865	0.01985076	-6919.53	-40.45154	669365.0
		t_c  304.2 # critical T, K
		p_c   72.80 # critical P, atm
		omega 0.225 #  acentric factor
	vm  -28
	H2(g)
		H2 = H2
		log_k	   -3.1050
		delta_h -4.184  kJ
		analytical_expression   -9.3114e+000    4.6473e-003   -4.9335e+001    1.4341e+000    1.2815e+005
		t_c  33.2 # critical T, K
		p_c   12.80 # critical P, atm
		omega 0.225 #  acentric factor
		vm -30 # (estimated, not checked)
	H2O(g)
		H2O = H2O
		log_k  1.506
	 delta_h -44.03 kJ
		T_c  647.3 # critical T, K
		p_c  217.60 # critical P, atm
		omega 0.344 #  acentric factor
		vm 0# + temperature and pressure terms
	H2S(g)
		H2S  =  H+ + HS-
		log_k	   -7.9759
		analytical_expression -9.7354e+001 -3.1576e-002 1.8285e+003 3.7440e+001 2.8560e+001
		T_c  373.2 # critical T, K
		p_c  88.20 # critical P, atm
		omega 0.1 #  acentric factor
		vm -30
	H2Sg(g)
		H2Sg  =  H+ + HSg-
		log_k	   -7.9759
		analytical_expression -9.7354e+001 -3.1576e-002 1.8285e+003 3.7440e+001 2.8560e+001
		T_c  373.2 # critical T, K
		p_c  88.20 # critical P, atm
		omega 0.1 #  acentric factor
		vm -30
	N2(g)
		N2 = N2
		log_k		 -3.1864
		analytical_expression -58.453 1.81800E-03  3199  17.909 -27460
		T_c  126.2 # critical T, K
		p_c   33.50 # critical P, atm
		omega 0.039 #  acentric factor
		vm -30
	O2(g)
		O2 = O2
		log_k   -2.8983
		analytical_expression -7.5001 7.8981e-003 0.0 0.0 2.0027e+005
		T_c  154.6 # critical T, K
		p_c   49.80 # critical P, atm
		omega 0.021 #  acentric factor
		vm -35
	Calcite
		CaCO3 = CO3-2 + Ca+2
		log_k	-8.48
		delta_h -2.297 kcal
		analytical_expression	-171.9065	-0.077993	2839.319	71.595
		vm 39.6 cm3/mol
	Strontianite
		SrCO3 = Sr+2 + CO3-2
		log_k	-9.271
		delta_h -0.400 kcal
		analytical_expression	155.0305	0.0	-7239.594	-56.58638
		vm 39.69
	SELECTED_OUTPUT
	 reset false
	 file co2.prn
	USER_PUNCH
	  1 sc$ = chr$(59)
	 10 for i = 1.1 to 500 step 20
	 20   punch 'SOLUTION 1' + sc$ + ' -temp 25' + EOL$ + 'C 1 CO2(g) ' +             str$(log10(i)) + EOL$ + '  pH 2 charge' +  EOL$ + 'END' + EOL$
	 30 next i
	END
-------------------------------------------
Beginning of initial solution calculations.
-------------------------------------------

Initial solution 1.	

WARNING: USER_PUNCH: Headings count doesn't match number of calls to PUNCH.

-----------------------------Solution composition------------------------------

	Elements           Molality       Moles

	Pure water     

----------------------------Description of solution----------------------------

                                       pH  =   7.000    
                                       pe  =   4.000    
                          Density (g/cm3)  =   0.99705
                        Activity of water  =   1.000
                           Ionic strength  =   1.001e-07
                       Mass of water (kg)  =   1.000e+00
                 Total alkalinity (eq/kg)  =   1.082e-10
                    Total carbon (mol/kg)  =   0.000e+00
                       Total CO2 (mol/kg)  =   0.000e+00
                      Temperature (deg C)  =  25.00
                  Electrical balance (eq)  =  -1.082e-10
 Percent error, 100*(Cat-|An|)/(Cat+|An|)  =  -0.05
                               Iterations  =   0
                                  Total H  = 1.110124e+02
                                  Total O  = 5.550622e+01

----------------------------Distribution of species----------------------------

                                                   Log       Log         Log 
   Species                 Molality    Activity  Molality  Activity     Gamma

   OH-                    1.002e-07   1.001e-07    -6.999    -6.999    -0.000
   H+                     1.001e-07   1.000e-07    -7.000    -7.000    -0.000
   H2O                    5.551e+01   1.000e+00     1.744     0.000     0.000
H(0)             1.416e-25
   H2                     7.079e-26   7.079e-26   -25.150   -25.150     0.000
O(0)             0.000e+00
   O2                     0.000e+00   0.000e+00   -42.080   -42.080     0.000

------------------------------Saturation indices-------------------------------

	Phase               SI   log IAP   log K(298 K,   1 atm)

	H2(g)           -22.05*   -25.15   -3.10  H2	 Delta_V  30.00 cm3/mol
	H2O(g)           -1.51      0.00    1.51  H2O
	O2(g)           -39.19*   -42.08   -2.89  O2	 Delta_V  35.00 cm3/mol
	                      *  with Delta_V * (P - 1) / 2.3RT.

------------------
End of simulation.
------------------

------------------------------------
Reading input data for simulation 2.
------------------------------------

	SELECTED_OUTPUT
	 selected_out false
	USER_GRAPH
	 -plot_csv_file f_CO2.dat
	 -initial_solutions true
	 -axis_titles "Pressure / atm" "CO2 fugacity coefficient"
	 -axis_scale x_axis 0 500
	 -axis_scale y_axis 0 1.2
	 10 graph_x PR_P("CO2(g)")
	 20 graph_y PR_PHI("CO2(g)")
	 -end
	SOLUTION 1
	 temp 25
	C 1 CO2(g)   4.1393e-02
	  pH 2 charge
	END
-------------------------------------------
Beginning of initial solution calculations.
-------------------------------------------

Initial solution 1.	

-----------------------------Solution composition------------------------------

	Elements           Molality       Moles

	C                 3.735e-02   3.735e-02  Equilibrium with CO2(g)

----------------------------Description of solution----------------------------

                                       pH  =   3.891      Charge balance
                                       pe  =   4.000    
                          Density (g/cm3)  =   0.99705
                        Activity of water  =   0.999
                           Ionic strength  =   1.303e-04
                       Mass of water (kg)  =   1.000e+00
                 Total alkalinity (eq/kg)  =  -3.312e-16
                       Total CO2 (mol/kg)  =   3.735e-02
                      Temperature (deg C)  =  25.00
                  Electrical balance (eq)  =   3.312e-16
 Percent error, 100*(Cat-|An|)/(Cat+|An|)  =   0.00
                               Iterations  =   8
                                  Total H  = 1.110127e+02
                                  Total O  = 5.558104e+01

----------------------------Distribution of species----------------------------

                                                   Log       Log         Log 
   Species                 Molality    Activity  Molality  Activity     Gamma

   H+                     1.303e-04   1.286e-04    -3.885    -3.891    -0.006
   OH-                    7.881e-11   7.778e-11   -10.103   -10.109    -0.006
   H2O                    5.551e+01   9.994e-01     1.744    -0.000     0.000
C(-4)            0.000e+00
   CH4                    0.000e+00   0.000e+00   -40.164   -40.164     0.000
C(4)             3.735e-02
   CO2                    3.722e-02   3.722e-02    -1.429    -1.429     0.000
   HCO3-                  1.303e-04   1.286e-04    -3.885    -3.891    -0.006
   CO3-2                  4.942e-11   4.689e-11   -10.306   -10.329    -0.023
H(0)             2.343e-19
   H2                     1.171e-19   1.171e-19   -18.931   -18.931     0.000
O(0)             0.000e+00
   O2                     0.000e+00   0.000e+00   -54.518   -54.518     0.000

------------------------------Saturation indices-------------------------------

	Phase               SI   log IAP   log K(298 K,   1 atm)

	CH4(g)          -37.32*   -40.16   -2.84  CH4	 Delta_V -33.00 cm3/mol
	CO2(g)            0.04**   -1.43   -1.47  CO2	 Delta_V  28.00 cm3/mol	 Pressure   1.1 atm, phi 0.994.
	H2(g)           -15.83*   -18.93   -3.10  H2	 Delta_V  30.00 cm3/mol
	H2O(g)           -1.51     -0.00    1.51  H2O
	O2(g)           -51.63*   -54.52   -2.89  O2	 Delta_V  35.00 cm3/mol
	                      *  with Delta_V * (P - 1) / 2.3RT.
	                      ** SI from Peng-Robinson fugacity - Delta_V * (P - 1) / 2.3RT.

------------------
End of simulation.
------------------

------------------------------------
Reading input data for simulation 3.
------------------------------------

		SOLUTION 1
	 temp 25
	C 1 CO2(g)   1.3243e+00
	  pH 2 charge
	END
-------------------------------------------
Beginning of initial solution calculations.
-------------------------------------------

Initial solution 1.	

-----------------------------Solution composition------------------------------

	Elements           Molality       Moles

	C                 6.227e-01   6.227e-01  Equilibrium with CO2(g)

----------------------------Description of solution----------------------------

                                       pH  =   3.281      Charge balance
                                       pe  =   4.000    
                          Density (g/cm3)  =   0.99705
                        Activity of water  =   0.989
                           Ionic strength  =   5.369e-04
                       Mass of water (kg)  =   1.000e+00
                 Total alkalinity (eq/kg)  =  -8.661e-15
                       Total CO2 (mol/kg)  =   6.227e-01
                      Temperature (deg C)  =  25.00
                  Electrical balance (eq)  =   8.661e-15
 Percent error, 100*(Cat-|An|)/(Cat+|An|)  =   0.00
                               Iterations  =   7
                                  Total H  = 1.110135e+02
                                  Total O  = 5.675213e+01

----------------------------Distribution of species----------------------------

                                                   Log       Log         Log 
   Species                 Molality    Activity  Molality  Activity     Gamma

   H+                     5.369e-04   5.234e-04    -3.270    -3.281    -0.011
   OH-                    1.943e-11   1.892e-11   -10.712   -10.723    -0.011
   H2O                    5.551e+01   9.894e-01     1.744    -0.005     0.000
C(-4)            8.799e-35
   CH4                    8.799e-35   8.800e-35   -34.056   -34.056     0.000
C(4)             6.227e-01
   CO2                    6.221e-01   6.222e-01    -0.206    -0.206     0.000
   HCO3-                  5.369e-04   5.231e-04    -3.270    -3.281    -0.011
   CO3-2                  5.202e-11   4.687e-11   -10.284   -10.329    -0.045
H(0)             3.879e-18
   H2                     1.940e-18   1.940e-18   -17.712   -17.712     0.000
O(0)             0.000e+00
   O2                     0.000e+00   0.000e+00   -56.965   -56.965     0.000

------------------------------Saturation indices-------------------------------

	Phase               SI   log IAP   log K(298 K,   1 atm)

	CH4(g)          -31.21*   -34.06   -2.84  CH4	 Delta_V -33.00 cm3/mol
	CO2(g)            1.26**   -0.21   -1.47  CO2	 Delta_V  28.00 cm3/mol	 Pressure  21.1 atm, phi 0.886.
	H2(g)           -14.61*   -17.71   -3.10  H2	 Delta_V  30.00 cm3/mol
	H2O(g)           -1.51     -0.00    1.51  H2O
	O2(g)           -54.07*   -56.96   -2.89  O2	 Delta_V  35.00 cm3/mol
	                      *  with Delta_V * (P - 1) / 2.3RT.
	                      ** SI from Peng-Robinson fugacity - Delta_V * (P - 1) / 2.3RT.

------------------
End of simulation.
------------------

------------------------------------
Reading input data for simulation 4.
------------------------------------

		SOLUTION 1
	 temp 25
	C 1 CO2(g)   1.6138e+00
	  pH 2 charge
	END
-------------------------------------------
Beginning of initial solution calculations.
-------------------------------------------

Initial solution 1.	

-----------------------------Solution composition------------------------------

	Elements           Molality       Moles

	C                 1.047e+00   1.047e+00  Equilibrium with CO2(g)

----------------------------Description of solution----------------------------

                                       pH  =   3.170      Charge balance
                                       pe  =   4.000    
                          Density (g/cm3)  =   0.99705
                        Activity of water  =   0.982
                           Ionic strength  =   6.961e-04
                       Mass of water (kg)  =   1.000e+00
                 Total alkalinity (eq/kg)  =  -1.877e-15
                       Total CO2 (mol/kg)  =   1.047e+00
                      Temperature (deg C)  =  25.00
                  Electrical balance (eq)  =   1.877e-15
 Percent error, 100*(Cat-|An|)/(Cat+|An|)  =   0.00
                               Iterations  =   7
                                  Total H  = 1.110138e+02
                                  Total O  = 5.760111e+01

----------------------------Distribution of species----------------------------

                                                   Log       Log         Log 
   Species                 Molality    Activity  Molality  Activity     Gamma

   H+                     6.961e-04   6.764e-04    -3.157    -3.170    -0.012
   OH-                    1.498e-11   1.454e-11   -10.825   -10.838    -0.013
   H2O                    5.551e+01   9.822e-01     1.744    -0.008     0.000
C(-4)            1.168e-33
   CH4                    1.168e-33   1.168e-33   -32.933   -32.932     0.000
C(4)             1.047e+00
   CO2                    1.046e+00   1.047e+00     0.020     0.020     0.000
   HCO3-                  6.961e-04   6.759e-04    -3.157    -3.170    -0.013
   CO3-2                  5.274e-11   4.686e-11   -10.278   -10.329    -0.051
H(0)             6.478e-18
   H2                     3.239e-18   3.239e-18   -17.490   -17.490     0.000
O(0)             0.000e+00
   O2                     0.000e+00   0.000e+00   -57.417   -57.417     0.000

------------------------------Saturation indices-------------------------------

	Phase               SI   log IAP   log K(298 K,   1 atm)

	CH4(g)          -30.09*   -32.93   -2.84  CH4	 Delta_V -33.00 cm3/mol
	CO2(g)            1.49**    0.02   -1.47  CO2	 Delta_V  28.00 cm3/mol	 Pressure  41.1 atm, phi 0.783.
	H2(g)           -14.39*   -17.49   -3.10  H2	 Delta_V  30.00 cm3/mol
	H2O(g)           -1.51     -0.01    1.51  H2O
	O2(g)           -54.52*   -57.42   -2.89  O2	 Delta_V  35.00 cm3/mol
	                      *  with Delta_V * (P - 1) / 2.3RT.
	                      ** SI from Peng-Robinson fugacity - Delta_V * (P - 1) / 2.3RT.

------------------
End of simulation.
------------------

------------------------------------
Reading input data for simulation 5.
------------------------------------

		SOLUTION 1
	 temp 25
	C 1 CO2(g)   1.7860e+00
	  pH 2 charge
	END
-------------------------------------------
Beginning of initial solution calculations.
-------------------------------------------

Initial solution 1.	

-----------------------------Solution composition------------------------------

	Elements           Molality       Moles

	C                 1.321e+00   1.321e+00  Equilibrium with CO2(g)

----------------------------Description of solution----------------------------

                                       pH  =   3.120      Charge balance
                                       pe  =   4.000    
                          Density (g/cm3)  =   0.99705
                        Activity of water  =   0.978
                           Ionic strength  =   7.814e-04
                       Mass of water (kg)  =   1.000e+00
                 Total alkalinity (eq/kg)  =  -2.736e-16
                       Total CO2 (mol/kg)  =   1.321e+00
                      Temperature (deg C)  =  25.00
                  Electrical balance (eq)  =   2.736e-16
 Percent error, 100*(Cat-|An|)/(Cat+|An|)  =   0.00
                               Iterations  =   7
                                  Total H  = 1.110140e+02
                                  Total O  = 5.814893e+01

----------------------------Distribution of species----------------------------

                                                   Log       Log         Log 
   Species                 Molality    Activity  Molality  Activity     Gamma

   H+                     7.814e-04   7.580e-04    -3.107    -3.120    -0.013
   OH-                    1.333e-11   1.291e-11   -10.875   -10.889    -0.014
   H2O                    5.551e+01   9.775e-01     1.744    -0.010     0.000
C(-4)            3.700e-33
   CH4                    3.700e-33   3.701e-33   -32.432   -32.432     0.000
C(4)             1.321e+00
   CO2                    1.320e+00   1.320e+00     0.121     0.121     0.000
   HCO3-                  7.814e-04   7.573e-04    -3.107    -3.121    -0.014
   CO3-2                  5.309e-11   4.685e-11   -10.275   -10.329    -0.054
H(0)             8.135e-18
   H2                     4.067e-18   4.068e-18   -17.391   -17.391     0.000
O(0)             0.000e+00
   O2                     0.000e+00   0.000e+00   -57.619   -57.619     0.000

------------------------------Saturation indices-------------------------------

	Phase               SI   log IAP   log K(298 K,   1 atm)

	CH4(g)          -29.59*   -32.43   -2.84  CH4	 Delta_V -33.00 cm3/mol
	CO2(g)            1.59**    0.12   -1.47  CO2	 Delta_V  28.00 cm3/mol	 Pressure  61.1 atm, phi 0.680.
	H2(g)           -14.29*   -17.39   -3.10  H2	 Delta_V  30.00 cm3/mol
	H2O(g)           -1.52     -0.01    1.51  H2O
	O2(g)           -54.73*   -57.62   -2.89  O2	 Delta_V  35.00 cm3/mol
	                      *  with Delta_V * (P - 1) / 2.3RT.
	                      ** SI from Peng-Robinson fugacity - Delta_V * (P - 1) / 2.3RT.

------------------
End of simulation.
------------------

------------------------------------
Reading input data for simulation 6.
------------------------------------

		SOLUTION 1
	 temp 25
	C 1 CO2(g)   1.9090e+00
	  pH 2 charge
	END
-------------------------------------------
Beginning of initial solution calculations.
-------------------------------------------

Initial solution 1.	

-----------------------------Solution composition------------------------------

	Elements           Molality       Moles

	C                 1.378e+00   1.378e+00  Equilibrium with CO2(g)

----------------------------Description of solution----------------------------

                                       pH  =   3.111      Charge balance
                                       pe  =   4.000    
                          Density (g/cm3)  =   0.99705
                        Activity of water  =   0.977
                           Ionic strength  =   7.980e-04
                       Mass of water (kg)  =   1.000e+00
                 Total alkalinity (eq/kg)  =  -5.331e-17
                       Total CO2 (mol/kg)  =   1.378e+00
                      Temperature (deg C)  =  25.00
                  Electrical balance (eq)  =   5.331e-17
 Percent error, 100*(Cat-|An|)/(Cat+|An|)  =   0.00
                               Iterations  =   7
                                  Total H  = 1.110140e+02
                                  Total O  = 5.826342e+01

----------------------------Distribution of species----------------------------

                                                   Log       Log         Log 
   Species                 Molality    Activity  Molality  Activity     Gamma

   H+                     7.980e-04   7.739e-04    -3.098    -3.111    -0.013
   OH-                    1.304e-11   1.263e-11   -10.885   -10.899    -0.014
   H2O                    5.551e+01   9.766e-01     1.744    -0.010     0.000
C(-4)            4.566e-33
   CH4                    4.566e-33   4.567e-33   -32.340   -32.340     0.000
C(4)             1.378e+00
   CO2                    1.377e+00   1.378e+00     0.139     0.139     0.000
   HCO3-                  7.980e-04   7.732e-04    -3.098    -3.112    -0.014
   CO3-2                  5.315e-11   4.685e-11   -10.274   -10.329    -0.055
H(0)             8.479e-18
   H2                     4.240e-18   4.240e-18   -17.373   -17.373     0.000
O(0)             0.000e+00
   O2                     0.000e+00   0.000e+00   -57.655   -57.655     0.000

------------------------------Saturation indices-------------------------------

	Phase               SI   log IAP   log K(298 K,   1 atm)

	CH4(g)          -29.50*   -32.34   -2.84  CH4	 Delta_V -33.00 cm3/mol
	CO2(g)            1.61**    0.14   -1.47  CO2	 Delta_V  28.00 cm3/mol	 Pressure  81.1 atm, phi 0.547.
	H2(g)           -14.27*   -17.37   -3.10  H2	 Delta_V  30.00 cm3/mol
	H2O(g)           -1.52     -0.01    1.51  H2O
	O2(g)           -54.76*   -57.66   -2.89  O2	 Delta_V  35.00 cm3/mol
	                      *  with Delta_V * (P - 1) / 2.3RT.
	                      ** SI from Peng-Robinson fugacity - Delta_V * (P - 1) / 2.3RT.

------------------
End of simulation.
------------------

------------------------------------
Reading input data for simulation 7.
------------------------------------

		SOLUTION 1
	 temp 25
	C 1 CO2(g)   2.0048e+00
	  pH 2 charge
	END
-------------------------------------------
Beginning of initial solution calculations.
-------------------------------------------

Initial solution 1.	

-----------------------------Solution composition------------------------------

	Elements           Molality       Moles

	C                 1.412e+00   1.412e+00  Equilibrium with CO2(g)

----------------------------Description of solution----------------------------

                                       pH  =   3.106      Charge balance
                                       pe  =   4.000    
                          Density (g/cm3)  =   0.99705
                        Activity of water  =   0.976
                           Ionic strength  =   8.077e-04
                       Mass of water (kg)  =   1.000e+00
                 Total alkalinity (eq/kg)  =   7.238e-17
                       Total CO2 (mol/kg)  =   1.412e+00
                      Temperature (deg C)  =  25.00
                  Electrical balance (eq)  =  -7.238e-17
 Percent error, 100*(Cat-|An|)/(Cat+|An|)  =  -0.00
                               Iterations  =   7
                                  Total H  = 1.110140e+02
                                  Total O  = 5.833177e+01

----------------------------Distribution of species----------------------------

                                                   Log       Log         Log 
   Species                 Molality    Activity  Molality  Activity     Gamma

   H+                     8.077e-04   7.832e-04    -3.093    -3.106    -0.013
   OH-                    1.288e-11   1.247e-11   -10.890   -10.904    -0.014
   H2O                    5.551e+01   9.760e-01     1.744    -0.011     0.000
C(-4)            5.155e-33
   CH4                    5.155e-33   5.156e-33   -32.288   -32.288     0.000
C(4)             1.412e+00
   CO2                    1.412e+00   1.412e+00     0.150     0.150     0.000
   HCO3-                  8.077e-04   7.825e-04    -3.093    -3.107    -0.014
   CO3-2                  5.319e-11   4.685e-11   -10.274   -10.329    -0.055
H(0)             8.684e-18
   H2                     4.342e-18   4.343e-18   -17.362   -17.362     0.000
O(0)             0.000e+00
   O2                     0.000e+00   0.000e+00   -57.677   -57.677     0.000

------------------------------Saturation indices-------------------------------

	Phase               SI   log IAP   log K(298 K,   1 atm)

	CH4(g)          -29.44*   -32.29   -2.84  CH4	 Delta_V -33.00 cm3/mol
	CO2(g)            1.62**    0.15   -1.47  CO2	 Delta_V  28.00 cm3/mol	 Pressure 101.1 atm, phi 0.460.
	H2(g)           -14.26*   -17.36   -3.10  H2	 Delta_V  30.00 cm3/mol
	H2O(g)           -1.52     -0.01    1.51  H2O
	O2(g)           -54.78*   -57.68   -2.89  O2	 Delta_V  35.00 cm3/mol
	                      *  with Delta_V * (P - 1) / 2.3RT.
	                      ** SI from Peng-Robinson fugacity - Delta_V * (P - 1) / 2.3RT.

------------------
End of simulation.
------------------

------------------------------------
Reading input data for simulation 8.
------------------------------------

		SOLUTION 1
	 temp 25
	C 1 CO2(g)   2.0831e+00
	  pH 2 charge
	END
-------------------------------------------
Beginning of initial solution calculations.
-------------------------------------------

Initial solution 1.	

-----------------------------Solution composition------------------------------

	Elements           Molality       Moles

	C                 1.443e+00   1.443e+00  Equilibrium with CO2(g)

----------------------------Description of solution----------------------------

                                       pH  =   3.102      Charge balance
                                       pe  =   4.000    
                          Density (g/cm3)  =   0.99705
                        Activity of water  =   0.975
                           Ionic strength  =   8.164e-04
                       Mass of water (kg)  =   1.000e+00
                 Total alkalinity (eq/kg)  =   1.822e-16
                       Total CO2 (mol/kg)  =   1.443e+00
                      Temperature (deg C)  =  25.00
                  Electrical balance (eq)  =  -1.822e-16
 Percent error, 100*(Cat-|An|)/(Cat+|An|)  =  -0.00
                               Iterations  =   7
                                  Total H  = 1.110141e+02
                                  Total O  = 5.839361e+01

----------------------------Distribution of species----------------------------

                                                   Log       Log         Log 
   Species                 Molality    Activity  Molality  Activity     Gamma

   H+                     8.164e-04   7.916e-04    -3.088    -3.102    -0.013
   OH-                    1.274e-11   1.234e-11   -10.895   -10.909    -0.014
   H2O                    5.551e+01   9.755e-01     1.744    -0.011     0.000
C(-4)            5.739e-33
   CH4                    5.739e-33   5.740e-33   -32.241   -32.241     0.000
C(4)             1.443e+00
   CO2                    1.442e+00   1.443e+00     0.159     0.159     0.000
   HCO3-                  8.164e-04   7.908e-04    -3.088    -3.102    -0.014
   CO3-2                  5.323e-11   4.685e-11   -10.274   -10.329    -0.055
H(0)             8.870e-18
   H2                     4.435e-18   4.436e-18   -17.353   -17.353     0.000
O(0)             0.000e+00
   O2                     0.000e+00   0.000e+00   -57.696   -57.696     0.000

------------------------------Saturation indices-------------------------------

	Phase               SI   log IAP   log K(298 K,   1 atm)

	CH4(g)          -29.40*   -32.24   -2.84  CH4	 Delta_V -33.00 cm3/mol
	CO2(g)            1.63**    0.16   -1.47  CO2	 Delta_V  28.00 cm3/mol	 Pressure 121.1 atm, phi 0.402.
	H2(g)           -14.25*   -17.35   -3.10  H2	 Delta_V  30.00 cm3/mol
	H2O(g)           -1.52     -0.01    1.51  H2O
	O2(g)           -54.80*   -57.70   -2.89  O2	 Delta_V  35.00 cm3/mol
	                      *  with Delta_V * (P - 1) / 2.3RT.
	                      ** SI from Peng-Robinson fugacity - Delta_V * (P - 1) / 2.3RT.

------------------
End of simulation.
------------------

------------------------------------
Reading input data for simulation 9.
------------------------------------

		SOLUTION 1
	 temp 25
	C 1 CO2(g)   2.1495e+00
	  pH 2 charge
	END
-------------------------------------------
Beginning of initial solution calculations.
-------------------------------------------

Initial solution 1.	

-----------------------------Solution composition------------------------------

	Elements           Molality       Moles

	C                 1.472e+00   1.472e+00  Equilibrium with CO2(g)

----------------------------Description of solution----------------------------

                                       pH  =   3.097      Charge balance
                                       pe  =   4.000    
                          Density (g/cm3)  =   0.99705
                        Activity of water  =   0.975
                           Ionic strength  =   8.244e-04
                       Mass of water (kg)  =   1.000e+00
                 Total alkalinity (eq/kg)  =   2.816e-16
                       Total CO2 (mol/kg)  =   1.472e+00
                      Temperature (deg C)  =  25.00
                  Electrical balance (eq)  =  -2.816e-16
 Percent error, 100*(Cat-|An|)/(Cat+|An|)  =  -0.00
                               Iterations  =   7
                                  Total H  = 1.110141e+02
                                  Total O  = 5.845138e+01

----------------------------Distribution of species----------------------------

                                                   Log       Log         Log 
   Species                 Molality    Activity  Molality  Activity     Gamma

   H+                     8.244e-04   7.992e-04    -3.084    -3.097    -0.013
   OH-                    1.262e-11   1.221e-11   -10.899   -10.913    -0.014
   H2O                    5.551e+01   9.750e-01     1.744    -0.011     0.000
C(-4)            6.331e-33
   CH4                    6.331e-33   6.332e-33   -32.199   -32.198     0.000
C(4)             1.472e+00
   CO2                    1.471e+00   1.472e+00     0.168     0.168     0.000
   HCO3-                  8.244e-04   7.984e-04    -3.084    -3.098    -0.014
   CO3-2                  5.326e-11   4.685e-11   -10.274   -10.329    -0.056
H(0)             9.043e-18
   H2                     4.521e-18   4.522e-18   -17.345   -17.345     0.000
O(0)             0.000e+00
   O2                     0.000e+00   0.000e+00   -57.713   -57.713     0.000

------------------------------Saturation indices-------------------------------

	Phase               SI   log IAP   log K(298 K,   1 atm)

	CH4(g)          -29.36*   -32.20   -2.84  CH4	 Delta_V -33.00 cm3/mol
	CO2(g)            1.64**    0.17   -1.47  CO2	 Delta_V  28.00 cm3/mol	 Pressure 141.1 atm, phi 0.360.
	H2(g)           -14.24*   -17.34   -3.10  H2	 Delta_V  30.00 cm3/mol
	H2O(g)           -1.52     -0.01    1.51  H2O
	O2(g)           -54.82*   -57.71   -2.89  O2	 Delta_V  35.00 cm3/mol
	                      *  with Delta_V * (P - 1) / 2.3RT.
	                      ** SI from Peng-Robinson fugacity - Delta_V * (P - 1) / 2.3RT.

------------------
End of simulation.
------------------

-------------------------------------
Reading input data for simulation 10.
-------------------------------------

		SOLUTION 1
	 temp 25
	C 1 CO2(g)   2.2071e+00
	  pH 2 charge
	END
-------------------------------------------
Beginning of initial solution calculations.
-------------------------------------------

Initial solution 1.	

-----------------------------Solution composition------------------------------

	Elements           Molality       Moles

	C                 1.500e+00   1.500e+00  Equilibrium with CO2(g)

----------------------------Description of solution----------------------------

                                       pH  =   3.093      Charge balance
                                       pe  =   4.000    
                          Density (g/cm3)  =   0.99705
                        Activity of water  =   0.974
                           Ionic strength  =   8.320e-04
                       Mass of water (kg)  =   1.000e+00
                 Total alkalinity (eq/kg)  =   3.772e-16
                       Total CO2 (mol/kg)  =   1.500e+00
                      Temperature (deg C)  =  25.00
                  Electrical balance (eq)  =  -3.772e-16
 Percent error, 100*(Cat-|An|)/(Cat+|An|)  =  -0.00
                               Iterations  =   7
                                  Total H  = 1.110141e+02
                                  Total O  = 5.850612e+01

----------------------------Distribution of species----------------------------

                                                   Log       Log         Log 
   Species                 Molality    Activity  Molality  Activity     Gamma

   H+                     8.320e-04   8.064e-04    -3.080    -3.093    -0.014
   OH-                    1.250e-11   1.210e-11   -10.903   -10.917    -0.014
   H2O                    5.551e+01   9.745e-01     1.744    -0.011     0.000
C(-4)            6.935e-33
   CH4                    6.935e-33   6.936e-33   -32.159   -32.159     0.000
C(4)             1.500e+00
   CO2                    1.499e+00   1.499e+00     0.176     0.176     0.000
   HCO3-                  8.320e-04   8.056e-04    -3.080    -3.094    -0.014
   CO3-2                  5.329e-11   4.685e-11   -10.273   -10.329    -0.056
H(0)             9.207e-18
   H2                     4.603e-18   4.604e-18   -17.337   -17.337     0.000
O(0)             0.000e+00
   O2                     0.000e+00   0.000e+00   -57.729   -57.729     0.000

------------------------------Saturation indices-------------------------------

	Phase               SI   log IAP   log K(298 K,   1 atm)

	CH4(g)          -29.32*   -32.16   -2.84  CH4	 Delta_V -33.00 cm3/mol
	CO2(g)            1.64**    0.18   -1.47  CO2	 Delta_V  28.00 cm3/mol	 Pressure 161.1 atm, phi 0.328.
	H2(g)           -14.24*   -17.34   -3.10  H2	 Delta_V  30.00 cm3/mol
	H2O(g)           -1.52     -0.01    1.51  H2O
	O2(g)           -54.84*   -57.73   -2.89  O2	 Delta_V  35.00 cm3/mol
	                      *  with Delta_V * (P - 1) / 2.3RT.
	                      ** SI from Peng-Robinson fugacity - Delta_V * (P - 1) / 2.3RT.

------------------
End of simulation.
------------------

-------------------------------------
Reading input data for simulation 11.
-------------------------------------

		SOLUTION 1
	 temp 25
	C 1 CO2(g)   2.2579e+00
	  pH 2 charge
	END
-------------------------------------------
Beginning of initial solution calculations.
-------------------------------------------

Initial solution 1.	

-----------------------------Solution composition------------------------------

	Elements           Molality       Moles

	C                 1.526e+00   1.526e+00  Equilibrium with CO2(g)

----------------------------Description of solution----------------------------

                                       pH  =   3.090      Charge balance
                                       pe  =   4.000    
                          Density (g/cm3)  =   0.99705
                        Activity of water  =   0.974
                           Ionic strength  =   8.391e-04
                       Mass of water (kg)  =   1.000e+00
                 Total alkalinity (eq/kg)  =   4.659e-16
                       Total CO2 (mol/kg)  =   1.526e+00
                      Temperature (deg C)  =  25.00
                  Electrical balance (eq)  =  -4.659e-16
 Percent error, 100*(Cat-|An|)/(Cat+|An|)  =  -0.00
                               Iterations  =   7
                                  Total H  = 1.110141e+02
                                  Total O  = 5.855842e+01

----------------------------Distribution of species----------------------------

                                                   Log       Log         Log 
   Species                 Molality    Activity  Molality  Activity     Gamma

   H+                     8.391e-04   8.133e-04    -3.076    -3.090    -0.014
   OH-                    1.239e-11   1.199e-11   -10.907   -10.921    -0.014
   H2O                    5.551e+01   9.740e-01     1.744    -0.011     0.000
C(-4)            7.555e-33
   CH4                    7.555e-33   7.556e-33   -32.122   -32.122     0.000
C(4)             1.526e+00
   CO2                    1.525e+00   1.525e+00     0.183     0.183     0.000
   HCO3-                  8.391e-04   8.124e-04    -3.076    -3.090    -0.014
   CO3-2                  5.331e-11   4.685e-11   -10.273   -10.329    -0.056
H(0)             9.363e-18
   H2                     4.681e-18   4.682e-18   -17.330   -17.330     0.000
O(0)             0.000e+00
   O2                     0.000e+00   0.000e+00   -57.744   -57.744     0.000

------------------------------Saturation indices-------------------------------

	Phase               SI   log IAP   log K(298 K,   1 atm)

	CH4(g)          -29.28*   -32.12   -2.84  CH4	 Delta_V -33.00 cm3/mol
	CO2(g)            1.65**    0.18   -1.47  CO2	 Delta_V  28.00 cm3/mol	 Pressure 181.1 atm, phi 0.304.
	H2(g)           -14.23*   -17.33   -3.10  H2	 Delta_V  30.00 cm3/mol
	H2O(g)           -1.52     -0.01    1.51  H2O
	O2(g)           -54.85*   -57.74   -2.89  O2	 Delta_V  35.00 cm3/mol
	                      *  with Delta_V * (P - 1) / 2.3RT.
	                      ** SI from Peng-Robinson fugacity - Delta_V * (P - 1) / 2.3RT.

------------------
End of simulation.
------------------

-------------------------------------
Reading input data for simulation 12.
-------------------------------------

		SOLUTION 1
	 temp 25
	C 1 CO2(g)   2.3034e+00
	  pH 2 charge
	END
-------------------------------------------
Beginning of initial solution calculations.
-------------------------------------------

Initial solution 1.	

-----------------------------Solution composition------------------------------

	Elements           Molality       Moles

	C                 1.551e+00   1.551e+00  Equilibrium with CO2(g)

----------------------------Description of solution----------------------------

                                       pH  =   3.086      Charge balance
                                       pe  =   4.000    
                          Density (g/cm3)  =   0.99705
                        Activity of water  =   0.974
                           Ionic strength  =   8.459e-04
                       Mass of water (kg)  =   1.000e+00
                 Total alkalinity (eq/kg)  =   5.497e-16
                       Total CO2 (mol/kg)  =   1.551e+00
                      Temperature (deg C)  =  25.00
                  Electrical balance (eq)  =  -5.497e-16
 Percent error, 100*(Cat-|An|)/(Cat+|An|)  =  -0.00
                               Iterations  =   7
                                  Total H  = 1.110141e+02
                                  Total O  = 5.860880e+01

----------------------------Distribution of species----------------------------

                                                   Log       Log         Log 
   Species                 Molality    Activity  Molality  Activity     Gamma

   H+                     8.459e-04   8.198e-04    -3.073    -3.086    -0.014
   OH-                    1.229e-11   1.189e-11   -10.911   -10.925    -0.014
   H2O                    5.551e+01   9.736e-01     1.744    -0.012     0.000
C(-4)            8.193e-33
   CH4                    8.193e-33   8.194e-33   -32.087   -32.086     0.000
C(4)             1.551e+00
   CO2                    1.550e+00   1.550e+00     0.190     0.190     0.000
   HCO3-                  8.459e-04   8.189e-04    -3.073    -3.087    -0.014
   CO3-2                  5.334e-11   4.685e-11   -10.273   -10.329    -0.056
H(0)             9.513e-18
   H2                     4.757e-18   4.758e-18   -17.323   -17.323     0.000
O(0)             0.000e+00
   O2                     0.000e+00   0.000e+00   -57.758   -57.758     0.000

------------------------------Saturation indices-------------------------------

	Phase               SI   log IAP   log K(298 K,   1 atm)

	CH4(g)          -29.24*   -32.09   -2.84  CH4	 Delta_V -33.00 cm3/mol
	CO2(g)            1.66**    0.19   -1.47  CO2	 Delta_V  28.00 cm3/mol	 Pressure 201.1 atm, phi 0.285.
	H2(g)           -14.22*   -17.32   -3.10  H2	 Delta_V  30.00 cm3/mol
	H2O(g)           -1.52     -0.01    1.51  H2O
	O2(g)           -54.87*   -57.76   -2.89  O2	 Delta_V  35.00 cm3/mol
	                      *  with Delta_V * (P - 1) / 2.3RT.
	                      ** SI from Peng-Robinson fugacity - Delta_V * (P - 1) / 2.3RT.

------------------
End of simulation.
------------------

-------------------------------------
Reading input data for simulation 13.
-------------------------------------

		SOLUTION 1
	 temp 25
	C 1 CO2(g)   2.3446e+00
	  pH 2 charge
	END
-------------------------------------------
Beginning of initial solution calculations.
-------------------------------------------

Initial solution 1.	

-----------------------------Solution composition------------------------------

	Elements           Molality       Moles

	C                 1.575e+00   1.575e+00  Equilibrium with CO2(g)

----------------------------Description of solution----------------------------

                                       pH  =   3.083      Charge balance
                                       pe  =   4.000    
                          Density (g/cm3)  =   0.99705
                        Activity of water  =   0.973
                           Ionic strength  =   8.525e-04
                       Mass of water (kg)  =   1.000e+00
                 Total alkalinity (eq/kg)  =   6.263e-16
                       Total CO2 (mol/kg)  =   1.575e+00
                      Temperature (deg C)  =  25.00
                  Electrical balance (eq)  =  -6.263e-16
 Percent error, 100*(Cat-|An|)/(Cat+|An|)  =  -0.00
                               Iterations  =   7
                                  Total H  = 1.110141e+02
                                  Total O  = 5.865756e+01

----------------------------Distribution of species----------------------------

                                                   Log       Log         Log 
   Species                 Molality    Activity  Molality  Activity     Gamma

   H+                     8.525e-04   8.260e-04    -3.069    -3.083    -0.014
   OH-                    1.219e-11   1.179e-11   -10.914   -10.928    -0.014
   H2O                    5.551e+01   9.732e-01     1.744    -0.012     0.000
C(-4)            8.850e-33
   CH4                    8.850e-33   8.852e-33   -32.053   -32.053     0.000
C(4)             1.575e+00
   CO2                    1.574e+00   1.575e+00     0.197     0.197     0.000
   HCO3-                  8.525e-04   8.252e-04    -3.069    -3.083    -0.014
   CO3-2                  5.336e-11   4.685e-11   -10.273   -10.329    -0.057
H(0)             9.659e-18
   H2                     4.830e-18   4.830e-18   -17.316   -17.316     0.000
O(0)             0.000e+00
   O2                     0.000e+00   0.000e+00   -57.772   -57.772     0.000

------------------------------Saturation indices-------------------------------

	Phase               SI   log IAP   log K(298 K,   1 atm)

	CH4(g)          -29.21*   -32.05   -2.84  CH4	 Delta_V -33.00 cm3/mol
	CO2(g)            1.67**    0.20   -1.47  CO2	 Delta_V  28.00 cm3/mol	 Pressure 221.1 atm, phi 0.269.
	H2(g)           -14.21*   -17.32   -3.10  H2	 Delta_V  30.00 cm3/mol
	H2O(g)           -1.52     -0.01    1.51  H2O
	O2(g)           -54.88*   -57.77   -2.89  O2	 Delta_V  35.00 cm3/mol
	                      *  with Delta_V * (P - 1) / 2.3RT.
	                      ** SI from Peng-Robinson fugacity - Delta_V * (P - 1) / 2.3RT.

------------------
End of simulation.
------------------

-------------------------------------
Reading input data for simulation 14.
-------------------------------------

		SOLUTION 1
	 temp 25
	C 1 CO2(g)   2.3822e+00
	  pH 2 charge
	END
-------------------------------------------
Beginning of initial solution calculations.
-------------------------------------------

Initial solution 1.	

-----------------------------Solution composition------------------------------

	Elements           Molality       Moles

	C                 1.599e+00   1.599e+00  Equilibrium with CO2(g)

----------------------------Description of solution----------------------------

                                       pH  =   3.080      Charge balance
                                       pe  =   4.000    
                          Density (g/cm3)  =   0.99705
                        Activity of water  =   0.973
                           Ionic strength  =   8.588e-04
                       Mass of water (kg)  =   1.000e+00
                 Total alkalinity (eq/kg)  =   7.065e-16
                       Total CO2 (mol/kg)  =   1.599e+00
                      Temperature (deg C)  =  25.00
                  Electrical balance (eq)  =  -7.065e-16
 Percent error, 100*(Cat-|An|)/(Cat+|An|)  =  -0.00
                               Iterations  =   7
                                  Total H  = 1.110142e+02
                                  Total O  = 5.870488e+01

----------------------------Distribution of species----------------------------

                                                   Log       Log         Log 
   Species                 Molality    Activity  Molality  Activity     Gamma

   H+                     8.588e-04   8.320e-04    -3.066    -3.080    -0.014
   OH-                    1.210e-11   1.170e-11   -10.917   -10.932    -0.014
   H2O                    5.551e+01   9.728e-01     1.744    -0.012     0.000
C(-4)            9.527e-33
   CH4                    9.527e-33   9.529e-33   -32.021   -32.021     0.000
C(4)             1.599e+00
   CO2                    1.598e+00   1.598e+00     0.204     0.204     0.000
   HCO3-                  8.588e-04   8.312e-04    -3.066    -3.080    -0.014
   CO3-2                  5.339e-11   4.685e-11   -10.273   -10.329    -0.057
H(0)             9.800e-18
   H2                     4.900e-18   4.901e-18   -17.310   -17.310     0.000
O(0)             0.000e+00
   O2                     0.000e+00   0.000e+00   -57.785   -57.785     0.000

------------------------------Saturation indices-------------------------------

	Phase               SI   log IAP   log K(298 K,   1 atm)

	CH4(g)          -29.18*   -32.02   -2.84  CH4	 Delta_V -33.00 cm3/mol
	CO2(g)            1.67**    0.20   -1.47  CO2	 Delta_V  28.00 cm3/mol	 Pressure 241.1 atm, phi 0.256.
	H2(g)           -14.21*   -17.31   -3.10  H2	 Delta_V  30.00 cm3/mol
	H2O(g)           -1.52     -0.01    1.51  H2O
	O2(g)           -54.89*   -57.78   -2.89  O2	 Delta_V  35.00 cm3/mol
	                      *  with Delta_V * (P - 1) / 2.3RT.
	                      ** SI from Peng-Robinson fugacity - Delta_V * (P - 1) / 2.3RT.

------------------
End of simulation.
------------------

-------------------------------------
Reading input data for simulation 15.
-------------------------------------

		SOLUTION 1
	 temp 25
	C 1 CO2(g)   2.4168e+00
	  pH 2 charge
	END
-------------------------------------------
Beginning of initial solution calculations.
-------------------------------------------

Initial solution 1.	

-----------------------------Solution composition------------------------------

	Elements           Molality       Moles

	C                 1.622e+00   1.622e+00  Equilibrium with CO2(g)

----------------------------Description of solution----------------------------

                                       pH  =   3.077      Charge balance
                                       pe  =   4.000    
                          Density (g/cm3)  =   0.99705
                        Activity of water  =   0.972
                           Ionic strength  =   8.649e-04
                       Mass of water (kg)  =   1.000e+00
                 Total alkalinity (eq/kg)  =   7.842e-16
                       Total CO2 (mol/kg)  =   1.622e+00
                      Temperature (deg C)  =  25.00
                  Electrical balance (eq)  =  -7.842e-16
 Percent error, 100*(Cat-|An|)/(Cat+|An|)  =  -0.00
                               Iterations  =   7
                                  Total H  = 1.110142e+02
                                  Total O  = 5.875096e+01

----------------------------Distribution of species----------------------------

                                                   Log       Log         Log 
   Species                 Molality    Activity  Molality  Activity     Gamma

   H+                     8.649e-04   8.378e-04    -3.063    -3.077    -0.014
   OH-                    1.201e-11   1.162e-11   -10.920   -10.935    -0.014
   H2O                    5.551e+01   9.724e-01     1.744    -0.012     0.000
C(-4)            1.023e-32
   CH4                    1.023e-32   1.023e-32   -31.990   -31.990     0.000
C(4)             1.622e+00
   CO2                    1.621e+00   1.621e+00     0.210     0.210     0.000
   HCO3-                  8.649e-04   8.370e-04    -3.063    -3.077    -0.014
   CO3-2                  5.341e-11   4.685e-11   -10.272   -10.329    -0.057
H(0)             9.937e-18
   H2                     4.969e-18   4.970e-18   -17.304   -17.304     0.000
O(0)             0.000e+00
   O2                     0.000e+00   0.000e+00   -57.797   -57.797     0.000

------------------------------Saturation indices-------------------------------

	Phase               SI   log IAP   log K(298 K,   1 atm)

	CH4(g)          -29.15*   -31.99   -2.84  CH4	 Delta_V -33.00 cm3/mol
	CO2(g)            1.68**    0.21   -1.47  CO2	 Delta_V  28.00 cm3/mol	 Pressure 261.1 atm, phi 0.246.
	H2(g)           -14.20*   -17.30   -3.10  H2	 Delta_V  30.00 cm3/mol
	H2O(g)           -1.52     -0.01    1.51  H2O
	O2(g)           -54.90*   -57.80   -2.89  O2	 Delta_V  35.00 cm3/mol
	                      *  with Delta_V * (P - 1) / 2.3RT.
	                      ** SI from Peng-Robinson fugacity - Delta_V * (P - 1) / 2.3RT.

------------------
End of simulation.
------------------

-------------------------------------
Reading input data for simulation 16.
-------------------------------------

		SOLUTION 1
	 temp 25
	C 1 CO2(g)   2.4489e+00
	  pH 2 charge
	END
-------------------------------------------
Beginning of initial solution calculations.
-------------------------------------------

Initial solution 1.	

-----------------------------Solution composition------------------------------

	Elements           Molality       Moles

	C                 1.644e+00   1.644e+00  Equilibrium with CO2(g)

----------------------------Description of solution----------------------------

                                       pH  =   3.074      Charge balance
                                       pe  =   4.000    
                          Density (g/cm3)  =   0.99705
                        Activity of water  =   0.972
                           Ionic strength  =   8.708e-04
                       Mass of water (kg)  =   1.000e+00
                 Total alkalinity (eq/kg)  =   8.601e-16
                       Total CO2 (mol/kg)  =   1.644e+00
                      Temperature (deg C)  =  25.00
                  Electrical balance (eq)  =  -8.601e-16
 Percent error, 100*(Cat-|An|)/(Cat+|An|)  =  -0.00
                               Iterations  =   7
                                  Total H  = 1.110142e+02
                                  Total O  = 5.879603e+01

----------------------------Distribution of species----------------------------

                                                   Log       Log         Log 
   Species                 Molality    Activity  Molality  Activity     Gamma

   H+                     8.708e-04   8.435e-04    -3.060    -3.074    -0.014
   OH-                    1.193e-11   1.154e-11   -10.923   -10.938    -0.015
   H2O                    5.551e+01   9.720e-01     1.744    -0.012     0.000
C(-4)            1.095e-32
   CH4                    1.095e-32   1.095e-32   -31.961   -31.961     0.000
C(4)             1.644e+00
   CO2                    1.644e+00   1.644e+00     0.216     0.216     0.000
   HCO3-                  8.708e-04   8.426e-04    -3.060    -3.074    -0.014
   CO3-2                  5.343e-11   4.685e-11   -10.272   -10.329    -0.057
H(0)             1.007e-17
   H2                     5.036e-18   5.037e-18   -17.298   -17.298     0.000
O(0)             0.000e+00
   O2                     0.000e+00   0.000e+00   -57.809   -57.809     0.000

------------------------------Saturation indices-------------------------------

	Phase               SI   log IAP   log K(298 K,   1 atm)

	CH4(g)          -29.12*   -31.96   -2.84  CH4	 Delta_V -33.00 cm3/mol
	CO2(g)            1.68**    0.22   -1.47  CO2	 Delta_V  28.00 cm3/mol	 Pressure 281.1 atm, phi 0.237.
	H2(g)           -14.20*   -17.30   -3.10  H2	 Delta_V  30.00 cm3/mol
	H2O(g)           -1.52     -0.01    1.51  H2O
	O2(g)           -54.92*   -57.81   -2.89  O2	 Delta_V  35.00 cm3/mol
	                      *  with Delta_V * (P - 1) / 2.3RT.
	                      ** SI from Peng-Robinson fugacity - Delta_V * (P - 1) / 2.3RT.

------------------
End of simulation.
------------------

-------------------------------------
Reading input data for simulation 17.
-------------------------------------

		SOLUTION 1
	 temp 25
	C 1 CO2(g)   2.4787e+00
	  pH 2 charge
	END
-------------------------------------------
Beginning of initial solution calculations.
-------------------------------------------

Initial solution 1.	

-----------------------------Solution composition------------------------------

	Elements           Molality       Moles

	C                 1.666e+00   1.666e+00  Equilibrium with CO2(g)

----------------------------Description of solution----------------------------

                                       pH  =   3.071      Charge balance
                                       pe  =   4.000    
                          Density (g/cm3)  =   0.99705
                        Activity of water  =   0.972
                           Ionic strength  =   8.765e-04
                       Mass of water (kg)  =   1.000e+00
                 Total alkalinity (eq/kg)  =   9.314e-16
                       Total CO2 (mol/kg)  =   1.666e+00
                      Temperature (deg C)  =  25.00
                  Electrical balance (eq)  =  -9.314e-16
 Percent error, 100*(Cat-|An|)/(Cat+|An|)  =  -0.00
                               Iterations  =   7
                                  Total H  = 1.110142e+02
                                  Total O  = 5.883998e+01

----------------------------Distribution of species----------------------------

                                                   Log       Log         Log 
   Species                 Molality    Activity  Molality  Activity     Gamma

   H+                     8.765e-04   8.489e-04    -3.057    -3.071    -0.014
   OH-                    1.185e-11   1.146e-11   -10.926   -10.941    -0.015
   H2O                    5.551e+01   9.717e-01     1.744    -0.012     0.000
C(-4)            1.169e-32
   CH4                    1.169e-32   1.169e-32   -31.932   -31.932     0.000
C(4)             1.666e+00
   CO2                    1.666e+00   1.666e+00     0.222     0.222     0.000
   HCO3-                  8.765e-04   8.480e-04    -3.057    -3.072    -0.014
   CO3-2                  5.346e-11   4.685e-11   -10.272   -10.329    -0.057
H(0)             1.020e-17
   H2                     5.101e-18   5.102e-18   -17.292   -17.292     0.000
O(0)             0.000e+00
   O2                     0.000e+00   0.000e+00   -57.821   -57.820     0.000

------------------------------Saturation indices-------------------------------

	Phase               SI   log IAP   log K(298 K,   1 atm)

	CH4(g)          -29.09*   -31.93   -2.84  CH4	 Delta_V -33.00 cm3/mol
	CO2(g)            1.69**    0.22   -1.47  CO2	 Delta_V  28.00 cm3/mol	 Pressure 301.1 atm, phi 0.229.
	H2(g)           -14.19*   -17.29   -3.10  H2	 Delta_V  30.00 cm3/mol
	H2O(g)           -1.52     -0.01    1.51  H2O
	O2(g)           -54.93*   -57.82   -2.89  O2	 Delta_V  35.00 cm3/mol
	                      *  with Delta_V * (P - 1) / 2.3RT.
	                      ** SI from Peng-Robinson fugacity - Delta_V * (P - 1) / 2.3RT.

------------------
End of simulation.
------------------

-------------------------------------
Reading input data for simulation 18.
-------------------------------------

		SOLUTION 1
	 temp 25
	C 1 CO2(g)   2.5066e+00
	  pH 2 charge
	END
-------------------------------------------
Beginning of initial solution calculations.
-------------------------------------------

Initial solution 1.	

-----------------------------Solution composition------------------------------

	Elements           Molality       Moles

	C                 1.688e+00   1.688e+00  Equilibrium with CO2(g)

----------------------------Description of solution----------------------------

                                       pH  =   3.068      Charge balance
                                       pe  =   4.000    
                          Density (g/cm3)  =   0.99705
                        Activity of water  =   0.971
                           Ionic strength  =   8.821e-04
                       Mass of water (kg)  =   1.000e+00
                 Total alkalinity (eq/kg)  =   1.005e-15
                       Total CO2 (mol/kg)  =   1.688e+00
                      Temperature (deg C)  =  25.00
                  Electrical balance (eq)  =  -1.005e-15
 Percent error, 100*(Cat-|An|)/(Cat+|An|)  =  -0.00
                               Iterations  =   7
                                  Total H  = 1.110142e+02
                                  Total O  = 5.888308e+01

----------------------------Distribution of species----------------------------

                                                   Log       Log         Log 
   Species                 Molality    Activity  Molality  Activity     Gamma

   H+                     8.821e-04   8.543e-04    -3.055    -3.068    -0.014
   OH-                    1.177e-11   1.138e-11   -10.929   -10.944    -0.015
   H2O                    5.551e+01   9.713e-01     1.744    -0.013     0.000
C(-4)            1.246e-32
   CH4                    1.246e-32   1.246e-32   -31.905   -31.904     0.000
C(4)             1.688e+00
   CO2                    1.687e+00   1.687e+00     0.227     0.227     0.000
   HCO3-                  8.821e-04   8.533e-04    -3.055    -3.069    -0.014
   CO3-2                  5.348e-11   4.685e-11   -10.272   -10.329    -0.057
H(0)             1.033e-17
   H2                     5.165e-18   5.166e-18   -17.287   -17.287     0.000
O(0)             0.000e+00
   O2                     0.000e+00   0.000e+00   -57.832   -57.832     0.000

------------------------------Saturation indices-------------------------------

	Phase               SI   log IAP   log K(298 K,   1 atm)

	CH4(g)          -29.06*   -31.90   -2.84  CH4	 Delta_V -33.00 cm3/mol
	CO2(g)            1.70**    0.23   -1.47  CO2	 Delta_V  28.00 cm3/mol	 Pressure 321.1 atm, phi 0.223.
	H2(g)           -14.19*   -17.29   -3.10  H2	 Delta_V  30.00 cm3/mol
	H2O(g)           -1.52     -0.01    1.51  H2O
	O2(g)           -54.94*   -57.83   -2.89  O2	 Delta_V  35.00 cm3/mol
	                      *  with Delta_V * (P - 1) / 2.3RT.
	                      ** SI from Peng-Robinson fugacity - Delta_V * (P - 1) / 2.3RT.

------------------
End of simulation.
------------------

-------------------------------------
Reading input data for simulation 19.
-------------------------------------

		SOLUTION 1
	 temp 25
	C 1 CO2(g)   2.5329e+00
	  pH 2 charge
	END
-------------------------------------------
Beginning of initial solution calculations.
-------------------------------------------

Initial solution 1.	

-----------------------------Solution composition------------------------------

	Elements           Molality       Moles

	C                 1.709e+00   1.709e+00  Equilibrium with CO2(g)

----------------------------Description of solution----------------------------

                                       pH  =   3.066      Charge balance
                                       pe  =   4.000    
                          Density (g/cm3)  =   0.99705
                        Activity of water  =   0.971
                           Ionic strength  =   8.875e-04
                       Mass of water (kg)  =   1.000e+00
                 Total alkalinity (eq/kg)  =   1.079e-15
                       Total CO2 (mol/kg)  =   1.709e+00
                      Temperature (deg C)  =  25.00
                  Electrical balance (eq)  =  -1.079e-15
 Percent error, 100*(Cat-|An|)/(Cat+|An|)  =  -0.00
                               Iterations  =   7
                                  Total H  = 1.110142e+02
                                  Total O  = 5.892552e+01

----------------------------Distribution of species----------------------------

                                                   Log       Log         Log 
   Species                 Molality    Activity  Molality  Activity     Gamma

   H+                     8.875e-04   8.595e-04    -3.052    -3.066    -0.014
   OH-                    1.170e-11   1.131e-11   -10.932   -10.947    -0.015
   H2O                    5.551e+01   9.709e-01     1.744    -0.013     0.000
C(-4)            1.325e-32
   CH4                    1.325e-32   1.325e-32   -31.878   -31.878     0.000
C(4)             1.709e+00
   CO2                    1.708e+00   1.709e+00     0.233     0.233     0.000
   HCO3-                  8.875e-04   8.585e-04    -3.052    -3.066    -0.014
   CO3-2                  5.350e-11   4.685e-11   -10.272   -10.329    -0.058
H(0)             1.046e-17
   H2                     5.228e-18   5.229e-18   -17.282   -17.282     0.000
O(0)             0.000e+00
   O2                     0.000e+00   0.000e+00   -57.843   -57.843     0.000

------------------------------Saturation indices-------------------------------

	Phase               SI   log IAP   log K(298 K,   1 atm)

	CH4(g)          -29.03*   -31.88   -2.84  CH4	 Delta_V -33.00 cm3/mol
	CO2(g)            1.70**    0.23   -1.47  CO2	 Delta_V  28.00 cm3/mol	 Pressure 341.1 atm, phi 0.217.
	H2(g)           -14.18*   -17.28   -3.10  H2	 Delta_V  30.00 cm3/mol
	H2O(g)           -1.52     -0.01    1.51  H2O
	O2(g)           -54.95*   -57.84   -2.89  O2	 Delta_V  35.00 cm3/mol
	                      *  with Delta_V * (P - 1) / 2.3RT.
	                      ** SI from Peng-Robinson fugacity - Delta_V * (P - 1) / 2.3RT.

------------------
End of simulation.
------------------

-------------------------------------
Reading input data for simulation 20.
-------------------------------------

		SOLUTION 1
	 temp 25
	C 1 CO2(g)   2.5576e+00
	  pH 2 charge
	END
-------------------------------------------
Beginning of initial solution calculations.
-------------------------------------------

Initial solution 1.	

-----------------------------Solution composition------------------------------

	Elements           Molality       Moles

	C                 1.730e+00   1.730e+00  Equilibrium with CO2(g)

----------------------------Description of solution----------------------------

                                       pH  =   3.063      Charge balance
                                       pe  =   4.000    
                          Density (g/cm3)  =   0.99705
                        Activity of water  =   0.971
                           Ionic strength  =   8.928e-04
                       Mass of water (kg)  =   1.000e+00
                 Total alkalinity (eq/kg)  =   1.155e-15
                       Total CO2 (mol/kg)  =   1.730e+00
                      Temperature (deg C)  =  25.00
                  Electrical balance (eq)  =  -1.155e-15
 Percent error, 100*(Cat-|An|)/(Cat+|An|)  =  -0.00
                               Iterations  =   7
                                  Total H  = 1.110142e+02
                                  Total O  = 5.896705e+01

----------------------------Distribution of species----------------------------

                                                   Log       Log         Log 
   Species                 Molality    Activity  Molality  Activity     Gamma

   H+                     8.928e-04   8.645e-04    -3.049    -3.063    -0.014
   OH-                    1.163e-11   1.124e-11   -10.935   -10.949    -0.015
   H2O                    5.551e+01   9.706e-01     1.744    -0.013     0.000
C(-4)            1.407e-32
   CH4                    1.407e-32   1.407e-32   -31.852   -31.852     0.000
C(4)             1.730e+00
   CO2                    1.729e+00   1.729e+00     0.238     0.238     0.000
   HCO3-                  8.928e-04   8.636e-04    -3.049    -3.064    -0.014
   CO3-2                  5.352e-11   4.685e-11   -10.272   -10.329    -0.058
H(0)             1.058e-17
   H2                     5.290e-18   5.291e-18   -17.277   -17.276     0.000
O(0)             0.000e+00
   O2                     0.000e+00   0.000e+00   -57.853   -57.853     0.000

------------------------------Saturation indices-------------------------------

	Phase               SI   log IAP   log K(298 K,   1 atm)

	CH4(g)          -29.01*   -31.85   -2.84  CH4	 Delta_V -33.00 cm3/mol
	CO2(g)            1.71**    0.24   -1.47  CO2	 Delta_V  28.00 cm3/mol	 Pressure 361.1 atm, phi 0.212.
	H2(g)           -14.18*   -17.28   -3.10  H2	 Delta_V  30.00 cm3/mol
	H2O(g)           -1.52     -0.01    1.51  H2O
	O2(g)           -54.96*   -57.85   -2.89  O2	 Delta_V  35.00 cm3/mol
	                      *  with Delta_V * (P - 1) / 2.3RT.
	                      ** SI from Peng-Robinson fugacity - Delta_V * (P - 1) / 2.3RT.

------------------
End of simulation.
------------------

-------------------------------------
Reading input data for simulation 21.
-------------------------------------

		SOLUTION 1
	 temp 25
	C 1 CO2(g)   2.5810e+00
	  pH 2 charge
	END
-------------------------------------------
Beginning of initial solution calculations.
-------------------------------------------

Initial solution 1.	

-----------------------------Solution composition------------------------------

	Elements           Molality       Moles

	C                 1.750e+00   1.750e+00  Equilibrium with CO2(g)

----------------------------Description of solution----------------------------

                                       pH  =   3.061      Charge balance
                                       pe  =   4.000    
                          Density (g/cm3)  =   0.99705
                        Activity of water  =   0.970
                           Ionic strength  =   8.980e-04
                       Mass of water (kg)  =   1.000e+00
                 Total alkalinity (eq/kg)  =   1.225e-15
                       Total CO2 (mol/kg)  =   1.750e+00
                      Temperature (deg C)  =  25.00
                  Electrical balance (eq)  =  -1.225e-15
 Percent error, 100*(Cat-|An|)/(Cat+|An|)  =  -0.00
                               Iterations  =   7
                                  Total H  = 1.110142e+02
                                  Total O  = 5.900795e+01

----------------------------Distribution of species----------------------------

                                                   Log       Log         Log 
   Species                 Molality    Activity  Molality  Activity     Gamma

   H+                     8.980e-04   8.695e-04    -3.047    -3.061    -0.014
   OH-                    1.156e-11   1.117e-11   -10.937   -10.952    -0.015
   H2O                    5.551e+01   9.702e-01     1.744    -0.013     0.000
C(-4)            1.491e-32
   CH4                    1.491e-32   1.491e-32   -31.827   -31.826     0.000
C(4)             1.750e+00
   CO2                    1.750e+00   1.750e+00     0.243     0.243     0.000
   HCO3-                  8.980e-04   8.685e-04    -3.047    -3.061    -0.014
   CO3-2                  5.354e-11   4.685e-11   -10.271   -10.329    -0.058
H(0)             1.070e-17
   H2                     5.351e-18   5.352e-18   -17.272   -17.272     0.000
O(0)             0.000e+00
   O2                     0.000e+00   0.000e+00   -57.863   -57.863     0.000

------------------------------Saturation indices-------------------------------

	Phase               SI   log IAP   log K(298 K,   1 atm)

	CH4(g)          -28.98*   -31.83   -2.84  CH4	 Delta_V -33.00 cm3/mol
	CO2(g)            1.71**    0.24   -1.47  CO2	 Delta_V  28.00 cm3/mol	 Pressure 381.1 atm, phi 0.208.
	H2(g)           -14.17*   -17.27   -3.10  H2	 Delta_V  30.00 cm3/mol
	H2O(g)           -1.52     -0.01    1.51  H2O
	O2(g)           -54.97*   -57.86   -2.89  O2	 Delta_V  35.00 cm3/mol
	                      *  with Delta_V * (P - 1) / 2.3RT.
	                      ** SI from Peng-Robinson fugacity - Delta_V * (P - 1) / 2.3RT.

------------------
End of simulation.
------------------

-------------------------------------
Reading input data for simulation 22.
-------------------------------------

		SOLUTION 1
	 temp 25
	C 1 CO2(g)   2.6033e+00
	  pH 2 charge
	END
-------------------------------------------
Beginning of initial solution calculations.
-------------------------------------------

Initial solution 1.	

-----------------------------Solution composition------------------------------

	Elements           Molality       Moles

	C                 1.771e+00   1.771e+00  Equilibrium with CO2(g)

----------------------------Description of solution----------------------------

                                       pH  =   3.058      Charge balance
                                       pe  =   4.000    
                          Density (g/cm3)  =   0.99705
                        Activity of water  =   0.970
                           Ionic strength  =   9.031e-04
                       Mass of water (kg)  =   1.000e+00
                 Total alkalinity (eq/kg)  =   1.304e-15
                       Total CO2 (mol/kg)  =   1.771e+00
                      Temperature (deg C)  =  25.00
                  Electrical balance (eq)  =  -1.304e-15
 Percent error, 100*(Cat-|An|)/(Cat+|An|)  =  -0.00
                               Iterations  =   7
                                  Total H  = 1.110142e+02
                                  Total O  = 5.904841e+01

----------------------------Distribution of species----------------------------

                                                   Log       Log         Log 
   Species                 Molality    Activity  Molality  Activity     Gamma

   H+                     9.031e-04   8.743e-04    -3.044    -3.058    -0.014
   OH-                    1.149e-11   1.111e-11   -10.940   -10.954    -0.015
   H2O                    5.551e+01   9.699e-01     1.744    -0.013     0.000
C(-4)            1.578e-32
   CH4                    1.578e-32   1.578e-32   -31.802   -31.802     0.000
C(4)             1.771e+00
   CO2                    1.770e+00   1.770e+00     0.248     0.248     0.000
   HCO3-                  9.031e-04   8.734e-04    -3.044    -3.059    -0.015
   CO3-2                  5.355e-11   4.685e-11   -10.271   -10.329    -0.058
H(0)             1.082e-17
   H2                     5.411e-18   5.412e-18   -17.267   -17.267     0.000
O(0)             0.000e+00
   O2                     0.000e+00   0.000e+00   -57.873   -57.873     0.000

------------------------------Saturation indices-------------------------------

	Phase               SI   log IAP   log K(298 K,   1 atm)

	CH4(g)          -28.96*   -31.80   -2.84  CH4	 Delta_V -33.00 cm3/mol
	CO2(g)            1.72**    0.25   -1.47  CO2	 Delta_V  28.00 cm3/mol	 Pressure 401.1 atm, phi 0.205.
	H2(g)           -14.17*   -17.27   -3.10  H2	 Delta_V  30.00 cm3/mol
	H2O(g)           -1.52     -0.01    1.51  H2O
	O2(g)           -54.98*   -57.87   -2.89  O2	 Delta_V  35.00 cm3/mol
	                      *  with Delta_V * (P - 1) / 2.3RT.
	                      ** SI from Peng-Robinson fugacity - Delta_V * (P - 1) / 2.3RT.

------------------
End of simulation.
------------------

-------------------------------------
Reading input data for simulation 23.
-------------------------------------

		SOLUTION 1
	 temp 25
	C 1 CO2(g)   2.6244e+00
	  pH 2 charge
	END
-------------------------------------------
Beginning of initial solution calculations.
-------------------------------------------

Initial solution 1.	

-----------------------------Solution composition------------------------------

	Elements           Molality       Moles

	C                 1.790e+00   1.790e+00  Equilibrium with CO2(g)

----------------------------Description of solution----------------------------

                                       pH  =   3.056      Charge balance
                                       pe  =   4.000    
                          Density (g/cm3)  =   0.99705
                        Activity of water  =   0.970
                           Ionic strength  =   9.080e-04
                       Mass of water (kg)  =   1.000e+00
                 Total alkalinity (eq/kg)  =   1.378e-15
                       Total CO2 (mol/kg)  =   1.790e+00
                      Temperature (deg C)  =  25.00
                  Electrical balance (eq)  =  -1.378e-15
 Percent error, 100*(Cat-|An|)/(Cat+|An|)  =  -0.00
                               Iterations  =   7
                                  Total H  = 1.110142e+02
                                  Total O  = 5.908806e+01

----------------------------Distribution of species----------------------------

                                                   Log       Log         Log 
   Species                 Molality    Activity  Molality  Activity     Gamma

   H+                     9.080e-04   8.790e-04    -3.042    -3.056    -0.014
   OH-                    1.143e-11   1.104e-11   -10.942   -10.957    -0.015
   H2O                    5.551e+01   9.695e-01     1.744    -0.013     0.000
C(-4)            1.667e-32
   CH4                    1.667e-32   1.667e-32   -31.778   -31.778     0.000
C(4)             1.790e+00
   CO2                    1.790e+00   1.790e+00     0.253     0.253     0.000
   HCO3-                  9.080e-04   8.781e-04    -3.042    -3.056    -0.015
   CO3-2                  5.357e-11   4.685e-11   -10.271   -10.329    -0.058
H(0)             1.094e-17
   H2                     5.469e-18   5.470e-18   -17.262   -17.262     0.000
O(0)             0.000e+00
   O2                     0.000e+00   0.000e+00   -57.883   -57.883     0.000

------------------------------Saturation indices-------------------------------

	Phase               SI   log IAP   log K(298 K,   1 atm)

	CH4(g)          -28.94*   -31.78   -2.84  CH4	 Delta_V -33.00 cm3/mol
	CO2(g)            1.72**    0.25   -1.47  CO2	 Delta_V  28.00 cm3/mol	 Pressure 421.1 atm, phi 0.202.
	H2(g)           -14.16*   -17.26   -3.10  H2	 Delta_V  30.00 cm3/mol
	H2O(g)           -1.52     -0.01    1.51  H2O
	O2(g)           -54.99*   -57.88   -2.89  O2	 Delta_V  35.00 cm3/mol
	                      *  with Delta_V * (P - 1) / 2.3RT.
	                      ** SI from Peng-Robinson fugacity - Delta_V * (P - 1) / 2.3RT.

------------------
End of simulation.
------------------

-------------------------------------
Reading input data for simulation 24.
-------------------------------------

		SOLUTION 1
	 temp 25
	C 1 CO2(g)   2.6445e+00
	  pH 2 charge
	END
-------------------------------------------
Beginning of initial solution calculations.
-------------------------------------------

Initial solution 1.	

-----------------------------Solution composition------------------------------

	Elements           Molality       Moles

	C                 1.810e+00   1.810e+00  Equilibrium with CO2(g)

----------------------------Description of solution----------------------------

                                       pH  =   3.054      Charge balance
                                       pe  =   4.000    
                          Density (g/cm3)  =   0.99705
                        Activity of water  =   0.969
                           Ionic strength  =   9.129e-04
                       Mass of water (kg)  =   1.000e+00
                 Total alkalinity (eq/kg)  =   1.454e-15
                       Total CO2 (mol/kg)  =   1.810e+00
                      Temperature (deg C)  =  25.00
                  Electrical balance (eq)  =  -1.454e-15
 Percent error, 100*(Cat-|An|)/(Cat+|An|)  =  -0.00
                               Iterations  =   7
                                  Total H  = 1.110143e+02
                                  Total O  = 5.912712e+01

----------------------------Distribution of species----------------------------

                                                   Log       Log         Log 
   Species                 Molality    Activity  Molality  Activity     Gamma

   H+                     9.129e-04   8.837e-04    -3.040    -3.054    -0.014
   OH-                    1.136e-11   1.098e-11   -10.945   -10.959    -0.015
   H2O                    5.551e+01   9.692e-01     1.744    -0.014     0.000
C(-4)            1.759e-32
   CH4                    1.759e-32   1.759e-32   -31.755   -31.755     0.000
C(4)             1.810e+00
   CO2                    1.809e+00   1.809e+00     0.257     0.258     0.000
   HCO3-                  9.129e-04   8.827e-04    -3.040    -3.054    -0.015
   CO3-2                  5.359e-11   4.685e-11   -10.271   -10.329    -0.058
H(0)             1.105e-17
   H2                     5.527e-18   5.528e-18   -17.258   -17.257     0.000
O(0)             0.000e+00
   O2                     0.000e+00   0.000e+00   -57.892   -57.892     0.000

------------------------------Saturation indices-------------------------------

	Phase               SI   log IAP   log K(298 K,   1 atm)

	CH4(g)          -28.91*   -31.75   -2.84  CH4	 Delta_V -33.00 cm3/mol
	CO2(g)            1.73**    0.26   -1.47  CO2	 Delta_V  28.00 cm3/mol	 Pressure 441.1 atm, phi 0.199.
	H2(g)           -14.16*   -17.26   -3.10  H2	 Delta_V  30.00 cm3/mol
	H2O(g)           -1.52     -0.01    1.51  H2O
	O2(g)           -55.00*   -57.89   -2.89  O2	 Delta_V  35.00 cm3/mol
	                      *  with Delta_V * (P - 1) / 2.3RT.
	                      ** SI from Peng-Robinson fugacity - Delta_V * (P - 1) / 2.3RT.

------------------
End of simulation.
------------------

-------------------------------------
Reading input data for simulation 25.
-------------------------------------

		SOLUTION 1
	 temp 25
	C 1 CO2(g)   2.6638e+00
	  pH 2 charge
	END
-------------------------------------------
Beginning of initial solution calculations.
-------------------------------------------

Initial solution 1.	

-----------------------------Solution composition------------------------------

	Elements           Molality       Moles

	C                 1.829e+00   1.829e+00  Equilibrium with CO2(g)

----------------------------Description of solution----------------------------

                                       pH  =   3.051      Charge balance
                                       pe  =   4.000    
                          Density (g/cm3)  =   0.99705
[...]

------------------------------Saturation indices-------------------------------

	Phase               SI   log IAP   log K(348 K,   1 atm)

	CH4(g)          -35.39*   -38.45   -3.05  CH4	 Delta_V -33.00 cm3/mol
	CO2(g)            2.01**    0.13   -1.87  CO2	 Delta_V  28.00 cm3/mol	 Pressure 361.1 atm, phi 0.399.
	H2(g)           -14.26*   -17.39   -3.13  H2	 Delta_V  30.00 cm3/mol
	H2O(g)           -0.41     -0.01    0.40  H2O
	O2(g)           -40.41*   -43.51   -3.10  O2	 Delta_V  35.00 cm3/mol
	                      *  with Delta_V * (P - 1) / 2.3RT.
	                      ** SI from Peng-Robinson fugacity - Delta_V * (P - 1) / 2.3RT.

------------------
End of simulation.
------------------

-------------------------------------
Reading input data for simulation 75.
-------------------------------------

		SOLUTION 1
	 temp 75
	C 1 CO2(g)   2.5810e+00
	  pH 2 charge
	END
-------------------------------------------
Beginning of initial solution calculations.
-------------------------------------------

Initial solution 1.	

-----------------------------Solution composition------------------------------

	Elements           Molality       Moles

	C                 1.380e+00   1.380e+00  Equilibrium with CO2(g)

----------------------------Description of solution----------------------------

                                       pH  =   3.096      Charge balance
                                       pe  =   4.000    
                          Density (g/cm3)  =   0.97611
                        Activity of water  =   0.977
                           Ionic strength  =   8.296e-04
                       Mass of water (kg)  =   1.000e+00
                 Total alkalinity (eq/kg)  =   2.859e-17
                       Total CO2 (mol/kg)  =   1.380e+00
                      Temperature (deg C)  =  75.00
                  Electrical balance (eq)  =  -2.859e-17
 Percent error, 100*(Cat-|An|)/(Cat+|An|)  =  -0.00
                               Iterations  =   7
                                  Total H  = 1.110141e+02
                                  Total O  = 5.826660e+01

----------------------------Distribution of species----------------------------

                                                   Log       Log         Log 
   Species                 Molality    Activity  Molality  Activity     Gamma

   H+                     8.296e-04   8.015e-04    -3.081    -3.096    -0.015
   OH-                    2.465e-10   2.377e-10    -9.608    -9.624    -0.016
   H2O                    5.551e+01   9.765e-01     1.744    -0.010     0.000
C(-4)            3.888e-39
   CH4                    3.888e-39   3.889e-39   -38.410   -38.410     0.000
C(4)             1.380e+00
   CO2                    1.379e+00   1.379e+00     0.140     0.140     0.000
   HCO3-                  8.296e-04   8.006e-04    -3.081    -3.097    -0.015
   CO3-2                  8.632e-11   7.486e-11   -10.064   -10.126    -0.062
H(0)             8.213e-18
   H2                     4.107e-18   4.107e-18   -17.387   -17.386     0.000
O(0)             0.000e+00
   O2                     0.000e+00   0.000e+00   -43.527   -43.527     0.000

------------------------------Saturation indices-------------------------------

	Phase               SI   log IAP   log K(348 K,   1 atm)

	CH4(g)          -35.36*   -38.41   -3.05  CH4	 Delta_V -33.00 cm3/mol
	CO2(g)            2.01**    0.14   -1.87  CO2	 Delta_V  28.00 cm3/mol	 Pressure 381.1 atm, phi 0.393.
	H2(g)           -14.25*   -17.39   -3.13  H2	 Delta_V  30.00 cm3/mol
	H2O(g)           -0.41     -0.01    0.40  H2O
	O2(g)           -40.43*   -43.53   -3.10  O2	 Delta_V  35.00 cm3/mol
	                      *  with Delta_V * (P - 1) / 2.3RT.
	                      ** SI from Peng-Robinson fugacity - Delta_V * (P - 1) / 2.3RT.

------------------
End of simulation.
------------------

-------------------------------------
Reading input data for simulation 76.
-------------------------------------

		SOLUTION 1
	 temp 75
	C 1 CO2(g)   2.6033e+00
	  pH 2 charge
	END
-------------------------------------------
Beginning of initial solution calculations.
-------------------------------------------

Initial solution 1.	

-----------------------------Solution composition------------------------------

	Elements           Molality       Moles

	C                 1.403e+00   1.403e+00  Equilibrium with CO2(g)

----------------------------Description of solution----------------------------

                                       pH  =   3.093      Charge balance
                                       pe  =   4.000    
                          Density (g/cm3)  =   0.97611
                        Activity of water  =   0.976
                           Ionic strength  =   8.365e-04
                       Mass of water (kg)  =   1.000e+00
                 Total alkalinity (eq/kg)  =   1.107e-16
                       Total CO2 (mol/kg)  =   1.403e+00
                      Temperature (deg C)  =  75.00
                  Electrical balance (eq)  =  -1.107e-16
 Percent error, 100*(Cat-|An|)/(Cat+|An|)  =  -0.00
                               Iterations  =   7
                                  Total H  = 1.110141e+02
                                  Total O  = 5.831306e+01

----------------------------Distribution of species----------------------------

                                                   Log       Log         Log 
   Species                 Molality    Activity  Molality  Activity     Gamma

   H+                     8.365e-04   8.081e-04    -3.078    -3.093    -0.015
   OH-                    2.445e-10   2.357e-10    -9.612    -9.628    -0.016
   H2O                    5.551e+01   9.761e-01     1.744    -0.010     0.000
C(-4)            4.224e-39
   CH4                    4.224e-39   4.224e-39   -38.374   -38.374     0.000
C(4)             1.403e+00
   CO2                    1.402e+00   1.402e+00     0.147     0.147     0.000
   HCO3-                  8.365e-04   8.071e-04    -3.078    -3.093    -0.016
   CO3-2                  8.637e-11   7.486e-11   -10.064   -10.126    -0.062
H(0)             8.348e-18
   H2                     4.174e-18   4.175e-18   -17.379   -17.379     0.000
O(0)             0.000e+00
   O2                     0.000e+00   0.000e+00   -43.542   -43.542     0.000

------------------------------Saturation indices-------------------------------

	Phase               SI   log IAP   log K(348 K,   1 atm)

	CH4(g)          -35.32*   -38.37   -3.05  CH4	 Delta_V -33.00 cm3/mol
	CO2(g)            2.02**    0.15   -1.87  CO2	 Delta_V  28.00 cm3/mol	 Pressure 401.1 atm, phi 0.387.
	H2(g)           -14.25*   -17.38   -3.13  H2	 Delta_V  30.00 cm3/mol
	H2O(g)           -0.41     -0.01    0.40  H2O
	O2(g)           -40.44*   -43.54   -3.10  O2	 Delta_V  35.00 cm3/mol
	                      *  with Delta_V * (P - 1) / 2.3RT.
	                      ** SI from Peng-Robinson fugacity - Delta_V * (P - 1) / 2.3RT.

------------------
End of simulation.
------------------

-------------------------------------
Reading input data for simulation 77.
-------------------------------------

		SOLUTION 1
	 temp 75
	C 1 CO2(g)   2.6244e+00
	  pH 2 charge
	END
-------------------------------------------
Beginning of initial solution calculations.
-------------------------------------------

Initial solution 1.	

-----------------------------Solution composition------------------------------

	Elements           Molality       Moles

	C                 1.426e+00   1.426e+00  Equilibrium with CO2(g)

----------------------------Description of solution----------------------------

                                       pH  =   3.089      Charge balance
                                       pe  =   4.000    
                          Density (g/cm3)  =   0.97611
                        Activity of water  =   0.976
                           Ionic strength  =   8.432e-04
                       Mass of water (kg)  =   1.000e+00
                 Total alkalinity (eq/kg)  =   1.924e-16
                       Total CO2 (mol/kg)  =   1.426e+00
                      Temperature (deg C)  =  75.00
                  Electrical balance (eq)  =  -1.924e-16
 Percent error, 100*(Cat-|An|)/(Cat+|An|)  =  -0.00
                               Iterations  =   7
                                  Total H  = 1.110141e+02
                                  Total O  = 5.835821e+01

----------------------------Distribution of species----------------------------

                                                   Log       Log         Log 
   Species                 Molality    Activity  Molality  Activity     Gamma

   H+                     8.432e-04   8.144e-04    -3.074    -3.089    -0.015
   OH-                    2.425e-10   2.338e-10    -9.615    -9.631    -0.016
   H2O                    5.551e+01   9.758e-01     1.744    -0.011     0.000
C(-4)            4.571e-39
   CH4                    4.571e-39   4.572e-39   -38.340   -38.340     0.000
C(4)             1.426e+00
   CO2                    1.425e+00   1.425e+00     0.154     0.154     0.000
   HCO3-                  8.432e-04   8.134e-04    -3.074    -3.090    -0.016
   CO3-2                  8.641e-11   7.486e-11   -10.063   -10.126    -0.062
H(0)             8.479e-18
   H2                     4.240e-18   4.240e-18   -17.373   -17.373     0.000
O(0)             0.000e+00
   O2                     0.000e+00   0.000e+00   -43.556   -43.556     0.000

------------------------------Saturation indices-------------------------------

	Phase               SI   log IAP   log K(348 K,   1 atm)

	CH4(g)          -35.29*   -38.34   -3.05  CH4	 Delta_V -33.00 cm3/mol
	CO2(g)            2.03**    0.15   -1.87  CO2	 Delta_V  28.00 cm3/mol	 Pressure 421.1 atm, phi 0.382.
	H2(g)           -14.24*   -17.37   -3.13  H2	 Delta_V  30.00 cm3/mol
	H2O(g)           -0.41     -0.01    0.40  H2O
	O2(g)           -40.46*   -43.56   -3.10  O2	 Delta_V  35.00 cm3/mol
	                      *  with Delta_V * (P - 1) / 2.3RT.
	                      ** SI from Peng-Robinson fugacity - Delta_V * (P - 1) / 2.3RT.

------------------
End of simulation.
------------------

-------------------------------------
Reading input data for simulation 78.
-------------------------------------

		SOLUTION 1
	 temp 75
	C 1 CO2(g)   2.6445e+00
	  pH 2 charge
	END
-------------------------------------------
Beginning of initial solution calculations.
-------------------------------------------

Initial solution 1.	

-----------------------------Solution composition------------------------------

	Elements           Molality       Moles

	C                 1.448e+00   1.448e+00  Equilibrium with CO2(g)

----------------------------Description of solution----------------------------

                                       pH  =   3.086      Charge balance
                                       pe  =   4.000    
                          Density (g/cm3)  =   0.97611
                        Activity of water  =   0.975
                           Ionic strength  =   8.496e-04
                       Mass of water (kg)  =   1.000e+00
                 Total alkalinity (eq/kg)  =   2.685e-16
                       Total CO2 (mol/kg)  =   1.448e+00
                      Temperature (deg C)  =  75.00
                  Electrical balance (eq)  =  -2.685e-16
 Percent error, 100*(Cat-|An|)/(Cat+|An|)  =  -0.00
                               Iterations  =   7
                                  Total H  = 1.110141e+02
                                  Total O  = 5.840235e+01

----------------------------Distribution of species----------------------------

                                                   Log       Log         Log 
   Species                 Molality    Activity  Molality  Activity     Gamma

   H+                     8.496e-04   8.205e-04    -3.071    -3.086    -0.015
   OH-                    2.406e-10   2.320e-10    -9.619    -9.635    -0.016
   H2O                    5.551e+01   9.754e-01     1.744    -0.011     0.000
C(-4)            4.933e-39
   CH4                    4.933e-39   4.933e-39   -38.307   -38.307     0.000
C(4)             1.448e+00
   CO2                    1.447e+00   1.447e+00     0.160     0.160     0.000
   HCO3-                  8.496e-04   8.196e-04    -3.071    -3.086    -0.016
   CO3-2                  8.646e-11   7.486e-11   -10.063   -10.126    -0.063
H(0)             8.607e-18
   H2                     4.304e-18   4.305e-18   -17.366   -17.366     0.000
O(0)             0.000e+00
   O2                     0.000e+00   0.000e+00   -43.569   -43.569     0.000

------------------------------Saturation indices-------------------------------

	Phase               SI   log IAP   log K(348 K,   1 atm)

	CH4(g)          -35.25*   -38.31   -3.05  CH4	 Delta_V -33.00 cm3/mol
	CO2(g)            2.03**    0.16   -1.87  CO2	 Delta_V  28.00 cm3/mol	 Pressure 441.1 atm, phi 0.377.
	H2(g)           -14.23*   -17.37   -3.13  H2	 Delta_V  30.00 cm3/mol
	H2O(g)           -0.41     -0.01    0.40  H2O
	O2(g)           -40.47*   -43.57   -3.10  O2	 Delta_V  35.00 cm3/mol
	                      *  with Delta_V * (P - 1) / 2.3RT.
	                      ** SI from Peng-Robinson fugacity - Delta_V * (P - 1) / 2.3RT.

------------------
End of simulation.
------------------

-------------------------------------
Reading input data for simulation 79.
-------------------------------------

		SOLUTION 1
	 temp 75
	C 1 CO2(g)   2.6638e+00
	  pH 2 charge
	END
-------------------------------------------
Beginning of initial solution calculations.
-------------------------------------------

Initial solution 1.	

-----------------------------Solution composition------------------------------

	Elements           Molality       Moles

	C                 1.469e+00   1.469e+00  Equilibrium with CO2(g)

----------------------------Description of solution----------------------------

                                       pH  =   3.083      Charge balance
                                       pe  =   4.000    
                          Density (g/cm3)  =   0.97611
                        Activity of water  =   0.975
                           Ionic strength  =   8.559e-04
                       Mass of water (kg)  =   1.000e+00
                 Total alkalinity (eq/kg)  =   3.402e-16
                       Total CO2 (mol/kg)  =   1.469e+00
                      Temperature (deg C)  =  75.00
                  Electrical balance (eq)  =  -3.402e-16
 Percent error, 100*(Cat-|An|)/(Cat+|An|)  =  -0.00
                               Iterations  =   7
                                  Total H  = 1.110141e+02
                                  Total O  = 5.844583e+01

----------------------------Distribution of species----------------------------

                                                   Log       Log         Log 
   Species                 Molality    Activity  Molality  Activity     Gamma

   H+                     8.559e-04   8.265e-04    -3.068    -3.083    -0.015
   OH-                    2.388e-10   2.302e-10    -9.622    -9.638    -0.016
   H2O                    5.551e+01   9.750e-01     1.744    -0.011     0.000
C(-4)            5.310e-39
   CH4                    5.310e-39   5.311e-39   -38.275   -38.275     0.000
C(4)             1.469e+00
   CO2                    1.469e+00   1.469e+00     0.167     0.167     0.000
   HCO3-                  8.559e-04   8.255e-04    -3.068    -3.083    -0.016
   CO3-2                  8.650e-11   7.486e-11   -10.063   -10.126    -0.063
H(0)             8.733e-18
   H2                     4.367e-18   4.368e-18   -17.360   -17.360     0.000
O(0)             0.000e+00
   O2                     0.000e+00   0.000e+00   -43.582   -43.582     0.000

------------------------------Saturation indices-------------------------------

	Phase               SI   log IAP   log K(348 K,   1 atm)

	CH4(g)          -35.22*   -38.27   -3.05  CH4	 Delta_V -33.00 cm3/mol
	CO2(g)            2.04**    0.17   -1.87  CO2	 Delta_V  28.00 cm3/mol	 Pressure 461.1 atm, phi 0.374.
	H2(g)           -14.23*   -17.36   -3.13  H2	 Delta_V  30.00 cm3/mol
	H2O(g)           -0.41     -0.01    0.40  H2O
	O2(g)           -40.48*   -43.58   -3.10  O2	 Delta_V  35.00 cm3/mol
	                      *  with Delta_V * (P - 1) / 2.3RT.
	                      ** SI from Peng-Robinson fugacity - Delta_V * (P - 1) / 2.3RT.

------------------
End of simulation.
------------------

-------------------------------------
Reading input data for simulation 80.
-------------------------------------

		SOLUTION 1
	 temp 75
	C 1 CO2(g)   2.6822e+00
	  pH 2 charge
	END
-------------------------------------------
Beginning of initial solution calculations.
-------------------------------------------

Initial solution 1.	

-----------------------------Solution composition------------------------------

	Elements           Molality       Moles

	C                 1.491e+00   1.491e+00  Equilibrium with CO2(g)

----------------------------Description of solution----------------------------

                                       pH  =   3.080      Charge balance
                                       pe  =   4.000    
                          Density (g/cm3)  =   0.97611
                        Activity of water  =   0.975
                           Ionic strength  =   8.620e-04
                       Mass of water (kg)  =   1.000e+00
                 Total alkalinity (eq/kg)  =   4.106e-16
                       Total CO2 (mol/kg)  =   1.491e+00
                      Temperature (deg C)  =  75.00
                  Electrical balance (eq)  =  -4.106e-16
 Percent error, 100*(Cat-|An|)/(Cat+|An|)  =  -0.00
                               Iterations  =   7
                                  Total H  = 1.110142e+02
                                  Total O  = 5.848831e+01

----------------------------Distribution of species----------------------------

                                                   Log       Log         Log 
   Species                 Molality    Activity  Molality  Activity     Gamma

   H+                     8.620e-04   8.323e-04    -3.064    -3.080    -0.015
   OH-                    2.371e-10   2.285e-10    -9.625    -9.641    -0.016
   H2O                    5.551e+01   9.746e-01     1.744    -0.011     0.000
C(-4)            5.702e-39
   CH4                    5.702e-39   5.703e-39   -38.244   -38.244     0.000
C(4)             1.491e+00
   CO2                    1.490e+00   1.490e+00     0.173     0.173     0.000
   HCO3-                  8.620e-04   8.313e-04    -3.064    -3.080    -0.016
   CO3-2                  8.654e-11   7.486e-11   -10.063   -10.126    -0.063
H(0)             8.856e-18
   H2                     4.428e-18   4.429e-18   -17.354   -17.354     0.000
O(0)             0.000e+00
   O2                     0.000e+00   0.000e+00   -43.594   -43.594     0.000

------------------------------Saturation indices-------------------------------

	Phase               SI   log IAP   log K(348 K,   1 atm)

	CH4(g)          -35.19*   -38.24   -3.05  CH4	 Delta_V -33.00 cm3/mol
	CO2(g)            2.05**    0.17   -1.87  CO2	 Delta_V  28.00 cm3/mol	 Pressure 481.1 atm, phi 0.371.
	H2(g)           -14.22*   -17.35   -3.13  H2	 Delta_V  30.00 cm3/mol
	H2O(g)           -0.41     -0.01    0.40  H2O
	O2(g)           -40.50*   -43.59   -3.10  O2	 Delta_V  35.00 cm3/mol
	                      *  with Delta_V * (P - 1) / 2.3RT.
	                      ** SI from Peng-Robinson fugacity - Delta_V * (P - 1) / 2.3RT.

------------------
End of simulation.
------------------

-------------------------------------
Reading input data for simulation 81.
-------------------------------------

	END
------------------
End of simulation.
------------------

-------------------------------------
Reading input data for simulation 82.
-------------------------------------

-----------
End of run.
-----------

