WARNING: Database file from DATABASE keyword is used; command line argument ignored.
   Input file: pitzer_fail
  Output file: pitzer_fail.out
Database file: ../database/pitzer.dat

------------------
Reading data base.
------------------

	SOLUTION_MASTER_SPECIES
	SOLUTION_SPECIES
	PHASES
	PITZER
	GAS_BINARY_PARAMETERS
	EXCHANGE_MASTER_SPECIES
	EXCHANGE_SPECIES
	SURFACE_MASTER_SPECIES
	SURFACE_SPECIES
	MEAN_GAMMAS
	END
------------------------------------
Reading input data for simulation 1.
------------------------------------

	DATABASE ../database/pitzer.dat
	SELECTED_OUTPUT 101
	    file                 pitzer_fail_101.sel
	USER_PUNCH 101
	    headings Mu SC
	    start
	10 PUNCH STR_F$(MU, 20, 12)
	20 PUNCH STR_F$(SC, 20, 10)
	    end
	SOLUTION 1
	    units   mol/kgw
	    pH     -3       charge
	    S       8
	SOLUTION 2
	    units   mol/kgw
	    pH     -3.263
	    S       8
	END
-------------------------------------------
Beginning of initial solution calculations.
-------------------------------------------

Initial solution 1.	

-----------------------------Solution composition------------------------------

	Elements           Molality       Moles

	S                 8.000e+00   8.000e+00

----------------------------Description of solution----------------------------

                                       pH  =  -3.264      Charge balance
                                       pe  =   4.000    
      Specific Conductance (µS/cm,  25°C)  = 498789
                          Density (g/cm³)  =   1.33671
                               Volume (L)  =   1.33510
                        Viscosity (mPa s)  =   1.30253
                        Activity of water  =   0.482
                 Ionic strength (mol/kgw)  =   8.932e+00
                       Mass of water (kg)  =   1.000e+00
                 Total alkalinity (eq/kg)  =  -1.600e+01
                         Temperature (°C)  =  25.00
                  Electrical balance (eq)  =  -1.852e-08
 Percent error, 100*(Cat-|An|)/(Cat+|An|)  =  -0.00
                               Iterations  =  23
                         Gamma iterations  =   8
                      Osmotic coefficient  =   2.46334
                         Density of water  =   0.99704
                                  Total H  = 1.270124e+02
                                  Total O  = 8.750622e+01

----------------------------Distribution of species----------------------------

                                                    MacInnes  MacInnes
                                MacInnes       Log       Log       Log    mole V
   Species          Molality    Activity  Molality  Activity     Gamma   cm³/mol

   H+              8.466e+00   1.000e+03     0.928     3.264     2.337      0.00
   OH-             2.361e-16   2.653e-18   -15.627   -17.576    -1.949      8.42
   H2O             5.551e+01   4.816e-01     1.744    -0.317     0.000     18.07
S(6)          8.000e+00
   HSO4-           7.534e+00   4.743e+00     0.877     0.676    -0.201     42.30
   SO4-2           4.659e-01   2.655e-05    -0.332    -4.576    -4.244     28.89

------------------------------Saturation indices-------------------------------

  Phase               SI** log IAP   log K(298 K,   1 atm)

  H2O(g)           -1.82     -0.32    1.50  H2O

**For a gas, SI = log10(fugacity). Fugacity = pressure * phi / 1 atm.
  For ideal gases, phi = 1.

Initial solution 2.	

WARNING: Maximum iterations exceeded, 200

WARNING: Maximum iterations exceeded, 200

WARNING: The program has failed to converge to a numerical solution.

The following equations were not satisfied:
ERROR:                    S has not converged. Total: 8.000000e+00	Calculated: 7.953641e+00	Residual: 4.635925e-02

ERROR:                   Mu Ionic strength has not converged. 	Residual: 1.319750e+03

WARNING: viscosity < 0, reset to viscosity of pure water
WARNING: viscosity < 0, reset to viscosity of pure water
-----------------------------Solution composition------------------------------

	Elements           Molality       Moles

	S                 7.954e+00   7.954e+00

----------------------------Description of solution----------------------------

                                       pH  =  -3.263    
                                       pe  =   4.000    
WARNING: viscosity < 0, reset to viscosity of pure water
      Specific Conductance (µS/cm,  25°C)  = -2147483648
                          Density (g/cm³)  =   7.06242   (Program limit)
                               Volume (L)  =   0.39364
WARNING: viscosity < 0, reset to viscosity of pure water
                        Viscosity (mPa s)  =   0.89002
                        Activity of water  =   0.982
                 Ionic strength (mol/kgw)  =   1.824e+03
                       Mass of water (kg)  =   1.000e+00
                 Total alkalinity (eq/kg)  =  -1.008e+03
                         Temperature (°C)  =  25.00
                  Electrical balance (eq)  =   9.920e+02
 Percent error, 100*(Cat-|An|)/(Cat+|An|)  =  98.42
                               Iterations  = 201 (425 overall)
                         Gamma iterations  = 201
                      Osmotic coefficient  =   3.10115
                         Density of water  =   0.99704
                                  Total H  = 1.118966e+03
                                  Total O  = 8.732078e+01

----------------------------Distribution of species----------------------------

                                                    MacInnes  MacInnes
                                MacInnes       Log       Log       Log    mole V
   Species          Molality    Activity  Molality  Activity     Gamma   cm³/mol

   H+              1.000e+03   1.000e+03    11.071     3.263    -7.808      0.00
   OH-             8.789e-26   5.423e-18   -25.056   -17.266     7.790   2024.02
   H2O             5.551e+01   9.817e-01     1.744    -0.008     0.000     18.07
S(6)          7.954e+00
   HSO4-           7.954e+00   1.000e+03     0.901    11.976    11.075    -76.61
   SO4-2           0.000e+00   1.000e+03  -133.275     6.725   140.000    211.18

------------------------------Saturation indices-------------------------------

  Phase               SI** log IAP   log K(298 K,   1 atm)

  H2O(g)           -1.51     -0.01    1.50  H2O

**For a gas, SI = log10(fugacity). Fugacity = pressure * phi / 1 atm.
  For ideal gases, phi = 1.

ERROR: Model failed to converge for initial solution  2.
Stopping.
