   Input file: ppdump
  Output file: ppdump.out
Database file: ../database/phreeqc.dat

------------------
Reading data base.
------------------

	SOLUTION_MASTER_SPECIES
	SOLUTION_SPECIES
	PHASES
	EXCHANGE_MASTER_SPECIES
	EXCHANGE_SPECIES
	SURFACE_MASTER_SPECIES
	SURFACE_SPECIES
	RATES
	END
------------------------------------
Reading input data for simulation 1.
------------------------------------

	DATABASE ../database/phreeqc.dat
	SOLUTION 1-3
		Na	1
		Cl	1
	END
-------------------------------------------
Beginning of initial solution calculations.
-------------------------------------------

Initial solution 1.	

-----------------------------Solution composition------------------------------

	Elements           Molality       Moles

	Cl                1.000e-03   1.000e-03
	Na                1.000e-03   1.000e-03

----------------------------Description of solution----------------------------

                                       pH  =   7.000    
                                       pe  =   4.000    
       Specific Conductance (uS/cm, 25 oC) = 123
                          Density (g/cm3)  =   0.99704
                        Activity of water  =   1.000
                           Ionic strength  =   1.000e-03
                       Mass of water (kg)  =   1.000e+00
                 Total alkalinity (eq/kg)  =   1.796e-09
                    Total carbon (mol/kg)  =   0.000e+00
                       Total CO2 (mol/kg)  =   0.000e+00
                      Temperature (deg C)  =  25.00
                  Electrical balance (eq)  =  -1.796e-09
 Percent error, 100*(Cat-|An|)/(Cat+|An|)  =  -0.00
                               Iterations  =   3
                                  Total H  = 1.110124e+02
                                  Total O  = 5.550622e+01

----------------------------Distribution of species----------------------------

                                            Log       Log         Log     mole V
   Species          Molality    Activity  Molality  Activity     Gamma   cm3/mol

   OH-             1.053e-07   1.015e-07    -6.978    -6.993    -0.016     -3.73
   H+              1.035e-07   1.000e-07    -6.985    -7.000    -0.015      0.00
   H2O             5.551e+01   1.000e+00     1.744    -0.000     0.000     18.07
Cl            1.000e-03
   Cl-             1.000e-03   9.648e-04    -3.000    -3.016    -0.016     18.11
H(0)          1.416e-25
   H2              7.078e-26   7.079e-26   -25.150   -25.150     0.000     20.00
Na            1.000e-03
   Na+             1.000e-03   9.651e-04    -3.000    -3.015    -0.015     -1.50
   NaOH            9.798e-21   9.801e-21   -20.009   -20.009     0.000     (0)  
O(0)          0.000e+00
   O2              0.000e+00   0.000e+00   -42.080   -42.080     0.000     35.00

------------------------------Saturation indices-------------------------------

	Phase               SI   log IAP   log K(298 K,   1 atm)

	H2(g)           -22.05    -25.15   -3.10  H2
	H2O(g)           -1.50     -0.00    1.50  H2O
	Halite           -7.61     -6.03    1.58  NaCl
	O2(g)           -39.19    -42.08   -2.89  O2


------------------
End of simulation.
------------------

------------------------------------
Reading input data for simulation 2.
------------------------------------

	EQUILIBRIUM_PHASES 1-3
		Barite	0	10
	END
------------------
End of simulation.
------------------

------------------------------------
Reading input data for simulation 3.
------------------------------------

	EXCHANGE 1-3
		X	1
		equilibrate	solution 1
	END
-------------------------------------------------------
Beginning of initial exchange-composition calculations.
-------------------------------------------------------

Exchange 1.	

X                1.000e+00 mol

	                               Equiv-    Equivalent      Log 
	Species             Moles      alents      Fraction     Gamma

	NaX               1.000e+00   1.000e+00   1.000e+00    -0.015

------------------
End of simulation.
------------------

------------------------------------
Reading input data for simulation 4.
------------------------------------

	SURFACE 1-3
	    equilibrate with solution 1
	    Hfo_s   0.01   600    1
	END
------------------------------------------------------
Beginning of initial surface-composition calculations.
------------------------------------------------------

Surface 1.	

Hfo           
	  3.785e-05  Surface charge, eq
	  6.088e-03  sigma, C/m**2
	  6.524e-02  psi, V
	 -2.540e+00  -F*psi/RT
	  7.890e-02  exp(-F*psi/RT)
	  6.000e+02  specific area, m**2/g
	  6.000e+02  m**2 for   1.000e+00 g


Hfo_s         
	  1.000e-02  moles
	                                   Mole                     Log
	Species               Moles    Fraction    Molality    Molality

	Hfo_sOH           7.676e-03       0.768   7.676e-03      -2.115
	Hfo_sOH2+         1.181e-03       0.118   1.181e-03      -2.928
	Hfo_sO-           1.143e-03       0.114   1.143e-03      -2.942

------------------
End of simulation.
------------------

------------------------------------
Reading input data for simulation 5.
------------------------------------

	GAS_PHASE 1-3
	    fixed_pressure
	    pressure 1
	    volume 1
	    temperature 25
	    CO2(g)    0.00035
	END
------------------
End of simulation.
------------------

------------------------------------
Reading input data for simulation 6.
------------------------------------

	SOLID_SOLUTIONS 1-3
	    Calcite
	        component calcite 0.1
	        component siderite 0.001
	END
------------------
End of simulation.
------------------

------------------------------------
Reading input data for simulation 7.
------------------------------------

	KINETICS 1-3
	Calcite
	    formula  CaCO3  1
	    m        1
	    m0       1
	    parms    1 1 1 1
	    tol      1e-008
	steps       1 in 1 steps # seconds
	step_divide 1
	runge_kutta 3
	bad_step_max 500
	END
------------------
End of simulation.
------------------

------------------------------------
Reading input data for simulation 8.
------------------------------------

	DUMP
		-file	ppdump.dmp
		-solution 1	 	
			2
			3
		-equilibrium_phases	1-3
		-exchange		1
			2-3
		-surface
			1-3
		-solid_solution 1
			2 3
		-gas_phase	1
		-gas_phase      2-3
		-kinetics	1
		-kinetics	2
		-kinetics       3
	END
------------------
End of simulation.
------------------

------------------------------------
Reading input data for simulation 9.
------------------------------------

	REACTION 1-3
		NaCl  1
		0.001
	END	
------------------
End of simulation.
------------------

-------------------------------------
Reading input data for simulation 10.
-------------------------------------

	MIX 1
		1 0.5
	MIX 2   
		2 0.5
		3 0.5
	MIX 3
		3 0.5
		2 0.5
	USE mix none
	END
------------------
End of simulation.
------------------

-------------------------------------
Reading input data for simulation 11.
-------------------------------------

	REACTION_TEMPERATURE 1-3
		30
	END
------------------
End of simulation.
------------------

-------------------------------------
Reading input data for simulation 12.
-------------------------------------

	REACTION_PRESSURE 1-3
		100 200 300
	END
------------------
End of simulation.
------------------

-------------------------------------
Reading input data for simulation 13.
-------------------------------------

	DELETE 
		-mix 2
	END
------------------
End of simulation.
------------------

-------------------------------------
Reading input data for simulation 14.
-------------------------------------

	RUN_CELLS 
		-cells 2-3
		-time_step   10000
		-start_time  100
	END
--------------------------
Beginning of run as cells.
--------------------------

-----------------------------------------
Beginning of batch-reaction calculations.
-----------------------------------------

Reaction step 1.

Using solution 2.	
Using exchange 2.	Exchange assemblage after simulation 3.
Using surface 2.	
Using pure phase assemblage 2.	
Using solid solution assemblage 2.	
Using gas phase 2.	
Using temperature 2.	
Using pressure 2.	
Using reaction 2.	
Using kinetics 2.	

Reaction 2.	

	  1.000e-03 moles of the following reaction have been added:

	                 Relative
	Reactant            moles

	NaCl                 1.00000

	                 Relative
	Element             moles
	Cl                   1.00000
	Na                   1.00000

Kinetics 2.	

	Time step: 3333.33 seconds

	Rate name       Delta Moles Total Moles   Reactant        Coefficient

	Calcite          -2.846e-07   1.000e+00   CaCO3                     1

----------------Fixed-pressure gas phase 2 dissolved completely----------------

-------------------------------Phase assemblage--------------------------------

                                                      Moles in assemblage
Phase               SI  log IAP  log K(T, P)   Initial       Final       Delta

Barite            0.08    -9.81     -9.90    1.000e+01   9.998e+00  -2.269e-03

--------------------------------Solid solutions--------------------------------


Solid solution                Component        Moles  Delta moles   Mole fract

Calcite                                     8.73e-02
                                calcite     8.66e-02    -1.34e-02     9.91e-01
                               siderite     7.55e-04    -2.45e-04     8.64e-03

------------------------------Surface composition------------------------------

Hfo           
	 -8.491e-05  Surface charge, eq
	 -1.366e-02  sigma, C/m**2
	 -3.091e-02  psi, V
	  1.183e+00  -F*psi/RT
	  3.265e+00  exp(-F*psi/RT)
	  6.000e+02  specific area, m**2/g
	  6.000e+02  m**2 for   1.000e+00 g


Hfo_s         
	  1.000e-02  moles
	                                   Mole                     Log
	Species               Moles    Fraction    Molality    Molality

	Hfo_sO-           5.590e-03       0.559   5.590e-03      -2.253
	Hfo_sOHCa+2       1.962e-03       0.196   1.962e-03      -2.707
	Hfo_sOH           1.531e-03       0.153   1.531e-03      -2.815
	Hfo_sOHBa+2       6.629e-04       0.066   6.629e-04      -3.179
	Hfo_sOFe+         2.450e-04       0.025   2.450e-04      -3.611
	Hfo_sOH2+         9.602e-06       0.001   9.602e-06      -5.018

-----------------------------Exchange composition------------------------------

X                1.000e+00 mol

	                               Equiv-    Equivalent      Log 
	Species             Moles      alents      Fraction     Gamma

	NaX               9.739e-01   9.739e-01   9.739e-01    -0.073
	CaX2              1.145e-02   2.291e-02   2.291e-02    -0.284
	BaX2              1.605e-03   3.210e-03   3.210e-03    -0.289
	FeX2              1.566e-07   3.132e-07   3.132e-07    -0.276

-----------------------------Solution composition------------------------------

	Elements           Molality       Moles

	Ba                5.996e-07   5.996e-07
	C                 1.368e-02   1.368e-02
	Ca                8.793e-06   8.793e-06
	Cl                2.000e-03   2.000e-03
	Fe                3.454e-09   3.454e-09
	Na                2.812e-02   2.812e-02
	S                 2.269e-03   2.269e-03

----------------------------Description of solution----------------------------

                                       pH  =  10.006      Charge balance
                                       pe  =  -6.074      Adjusted to redox equilibrium
       Specific Conductance (uS/cm, 30 oC) = 2847
                          Density (g/cm3)  =   1.00152
                        Activity of water  =   0.999
                           Ionic strength  =   3.386e-02
                       Mass of water (kg)  =   1.000e+00
                 Total alkalinity (eq/kg)  =   2.148e-02
                       Total CO2 (mol/kg)  =   1.368e-02
                      Temperature (deg C)  =  30.00
                           Pressure (atm)  = 100.00
                  Electrical balance (eq)  =   1.228e-04
 Percent error, 100*(Cat-|An|)/(Cat+|An|)  =   0.24
                               Iterations  =  39
                                  Total H  = 1.110183e+02
                                  Total O  = 5.555633e+01

----------------------------Distribution of species----------------------------

                                            Log       Log         Log     mole V
   Species          Molality    Activity  Molality  Activity     Gamma   cm3/mol

   OH-             1.948e-04   1.629e-04    -3.710    -3.788    -0.078     -2.99
   H+              1.134e-10   9.852e-11    -9.946   -10.006    -0.061      0.00
   H2O             5.551e+01   9.992e-01     1.744    -0.000     0.000     18.02
Ba            5.996e-07
   Ba+2            2.741e-07   1.408e-07    -6.562    -6.851    -0.289    -11.68
   BaCO3           2.384e-07   2.403e-07    -6.623    -6.619     0.003     (0)  
   BaSO4           7.626e-08   7.685e-08    -7.118    -7.114     0.003     (0)  
   BaHCO3+         1.071e-08   9.023e-09    -7.970    -8.045    -0.074     (0)  
   BaOH+           5.744e-11   4.840e-11   -10.241   -10.315    -0.074     (0)  
C(-4)         1.511e-14
   CH4             1.511e-14   1.522e-14   -13.821   -13.817     0.003     33.00
C(4)          1.368e-02
   HCO3-           6.001e-03   5.096e-03    -2.222    -2.293    -0.071     26.11
   CO3-2           5.744e-03   2.987e-03    -2.241    -2.525    -0.284     -2.49
   NaCO3-          1.849e-03   1.558e-03    -2.733    -2.807    -0.074     -1.95
   NaHCO3          8.317e-05   8.382e-05    -4.080    -4.077     0.003     28.84
   CaCO3           5.972e-06   6.019e-06    -5.224    -5.220     0.003     25.00
   CO2             9.904e-07   9.982e-07    -6.004    -6.001     0.003     25.48
   BaCO3           2.384e-07   2.403e-07    -6.623    -6.619     0.003     (0)  
   CaHCO3+         1.008e-07   8.558e-08    -6.997    -7.068    -0.071     20.17
   BaHCO3+         1.071e-08   9.023e-09    -7.970    -8.045    -0.074     (0)  
   FeCO3           3.061e-09   3.085e-09    -8.514    -8.511     0.003     (0)  
   FeHCO3+         2.917e-11   2.458e-11   -10.535   -10.609    -0.074     (0)  
Ca            8.793e-06
   CaCO3           5.972e-06   6.019e-06    -5.224    -5.220     0.003     25.00
   Ca+2            2.475e-06   1.288e-06    -5.606    -5.890    -0.284    -17.75
   CaSO4           2.423e-07   2.442e-07    -6.616    -6.612     0.003     12.85
   CaHCO3+         1.008e-07   8.558e-08    -6.997    -7.068    -0.071     20.17
   CaOH+           2.573e-09   2.168e-09    -8.590    -8.664    -0.074     (0)  
   CaHSO4+         2.143e-16   1.805e-16   -15.669   -15.743    -0.074     (0)  
Cl            2.000e-03
   Cl-             2.000e-03   1.674e-03    -2.699    -2.776    -0.077     18.52
   FeCl+           1.181e-13   9.948e-14   -12.928   -13.002    -0.074     (0)  
   FeCl+2          5.319e-31   2.682e-31   -30.274   -30.572    -0.297     (0)  
   FeCl2+          2.036e-33   1.716e-33   -32.691   -32.766    -0.074     (0)  
   FeCl3           2.850e-37   2.873e-37   -36.545   -36.542     0.003     (0)  
Fe(2)         3.417e-09
   FeCO3           3.061e-09   3.085e-09    -8.514    -8.511     0.003     (0)  
   FeOH+           2.366e-10   1.994e-10    -9.626    -9.700    -0.074     (0)  
   Fe+2            8.134e-11   4.304e-11   -10.090   -10.366    -0.276    -21.83
   FeHCO3+         2.917e-11   2.458e-11   -10.535   -10.609    -0.074     (0)  
   FeSO4           9.048e-12   9.119e-12   -11.043   -11.040     0.003     (0)  
   FeCl+           1.181e-13   9.948e-14   -12.928   -13.002    -0.074     (0)  
   FeHSO4+         7.159e-21   6.033e-21   -20.145   -20.219    -0.074     (0)  
   Fe(HS)2         3.731e-25   3.760e-25   -24.428   -24.425     0.003     (0)  
   Fe(HS)3-        1.521e-34   1.282e-34   -33.818   -33.892    -0.074     (0)  
Fe(3)         3.737e-11
   Fe(OH)4-        3.479e-11   2.932e-11   -10.459   -10.533    -0.074     (0)  
   Fe(OH)3         2.581e-12   2.601e-12   -11.588   -11.585     0.003     (0)  
   Fe(OH)2+        1.907e-15   1.607e-15   -14.720   -14.794    -0.074     (0)  
   FeOH+2          7.874e-22   3.970e-22   -21.104   -21.401    -0.297     (0)  
   FeSO4+          7.169e-29   6.041e-29   -28.145   -28.219    -0.074     (0)  
   Fe+3            1.605e-29   4.538e-30   -28.794   -29.343    -0.549     (0)  
   Fe(SO4)2-       1.741e-30   1.467e-30   -29.759   -29.834    -0.074     (0)  
   FeCl+2          5.319e-31   2.682e-31   -30.274   -30.572    -0.297     (0)  
   FeCl2+          2.036e-33   1.716e-33   -32.691   -32.766    -0.074     (0)  
   FeCl3           2.850e-37   2.873e-37   -36.545   -36.542     0.003     (0)  
   FeHSO4+2        3.169e-38   1.598e-38   -37.499   -37.797    -0.297     (0)  
   Fe2(OH)2+4      0.000e+00   0.000e+00   -40.271   -41.461    -1.190     (0)  
   Fe3(OH)4+5      0.000e+00   0.000e+00   -52.273   -54.132    -1.859     (0)  
H(0)          1.687e-11
   H2              8.433e-12   8.499e-12   -11.074   -11.071     0.003     20.00
Na            2.812e-02
   Na+             2.604e-02   2.200e-02    -1.584    -1.658    -0.073     -1.11
   NaCO3-          1.849e-03   1.558e-03    -2.733    -2.807    -0.074     -1.95
   NaSO4-          1.423e-04   1.199e-04    -3.847    -3.921    -0.074     23.06
   NaHCO3          8.317e-05   8.382e-05    -4.080    -4.077     0.003     28.84
   NaOH            3.271e-16   3.297e-16   -15.485   -15.482     0.003     (0)  
O(0)          0.000e+00
   O2              0.000e+00   0.000e+00   -68.723   -68.720     0.003     35.00
S(-2)         2.833e-12
   HS-             2.820e-12   2.358e-12   -11.550   -11.627    -0.078     15.17
   S-2             1.046e-14   5.375e-15   -13.980   -14.270    -0.289     (0)  
   H2S             1.617e-15   1.630e-15   -14.791   -14.788     0.003     34.63
   Fe(HS)2         3.731e-25   3.760e-25   -24.428   -24.425     0.003     (0)  
   Fe(HS)3-        1.521e-34   1.282e-34   -33.818   -33.892    -0.074     (0)  
S(6)          2.269e-03
   SO4-2           2.126e-03   1.089e-03    -2.672    -2.963    -0.291     16.05
   NaSO4-          1.423e-04   1.199e-04    -3.847    -3.921    -0.074     23.06
   CaSO4           2.423e-07   2.442e-07    -6.616    -6.612     0.003     12.85
   BaSO4           7.626e-08   7.685e-08    -7.118    -7.114     0.003     (0)  
   HSO4-           1.383e-11   1.166e-11   -10.859   -10.933    -0.074     (0)  
   FeSO4           9.048e-12   9.119e-12   -11.043   -11.040     0.003     (0)  
   CaHSO4+         2.143e-16   1.805e-16   -15.669   -15.743    -0.074     (0)  
   FeHSO4+         7.159e-21   6.033e-21   -20.145   -20.219    -0.074     (0)  
   FeSO4+          7.169e-29   6.041e-29   -28.145   -28.219    -0.074     (0)  
   Fe(SO4)2-       1.741e-30   1.467e-30   -29.759   -29.834    -0.074     (0)  
   FeHSO4+2        3.169e-38   1.598e-38   -37.499   -37.797    -0.297     (0)  

------------------------------Saturation indices-------------------------------

	Phase               SI   log IAP   log K(303 K, 100 atm)

	Anhydrite        -4.65     -8.85   -4.20  CaSO4
	Aragonite        -0.14     -8.41   -8.28  CaCO3
	Barite            0.00     -9.81   -9.81  BaSO4
	Calcite          -0.00     -8.41   -8.41  CaCO3
	CH4(g)          -11.04    -13.82   -2.78  CH4
	CO2(g)           -4.51     -6.00   -1.49  CO2
	Fe(OH)3(a)       -4.16      0.68    4.84  Fe(OH)3
	FeS(ppt)         -8.21    -11.99   -3.78  FeS
	Goethite          1.88      0.68   -1.20  FeOOH
	Gypsum           -4.34     -8.85   -4.52  CaSO4:2H2O
	H2(g)            -7.96    -11.07   -3.11  H2
	H2O(g)           -1.35     -0.00    1.35  H2O
	H2S(g)          -13.75    -21.63   -7.88  H2S
	Halite           -6.04     -4.43    1.61  NaCl
	Hematite          5.75      1.35   -4.40  Fe2O3
	Mackinawite      -7.47    -11.99   -4.51  FeS
	Melanterite     -10.97    -13.33   -2.36  FeSO4:7H2O
	O2(g)           -65.73    -68.72   -2.99  O2
	Pyrite           -7.65    -25.76  -18.11  FeS2
	Siderite         -2.06    -12.89  -10.83  FeCO3
	Sulfur          -11.79     -6.92    4.86  S
	Witherite        -0.92     -9.38   -8.45  BaCO3


Reaction step 2.

Using solution 2.	
Using exchange 2.	Exchange assemblage after simulation 3.
Using surface 2.	
Using pure phase assemblage 2.	
Using solid solution assemblage 2.	
Using gas phase 2.	
Using temperature 2.	
Using pressure 2.	
Using reaction 2.	
Using kinetics 2.	

Reaction 2.	

	  1.000e-03 moles of the following reaction have been added:

	                 Relative
	Reactant            moles

	NaCl                 1.00000

	                 Relative
	Element             moles
	Cl                   1.00000
	Na                   1.00000

Kinetics 2.	

	Time step: 6666.67 seconds

	Rate name       Delta Moles Total Moles   Reactant        Coefficient

	Calcite          -5.714e-07   1.000e+00   CaCO3                     1

----------------Fixed-pressure gas phase 2 dissolved completely----------------

-------------------------------Phase assemblage--------------------------------

                                                      Moles in assemblage
Phase               SI  log IAP  log K(T, P)   Initial       Final       Delta

Barite           -0.01    -9.74     -9.73    1.000e+01   9.998e+00  -2.355e-03

--------------------------------Solid solutions--------------------------------


Solid solution                Component        Moles  Delta moles   Mole fract

Calcite                                     8.66e-02
                                calcite     8.58e-02    -1.42e-02     9.91e-01
                               siderite     7.51e-04    -2.49e-04     8.68e-03

------------------------------Surface composition------------------------------

Hfo           
	 -8.175e-05  Surface charge, eq
	 -1.315e-02  sigma, C/m**2
	 -2.912e-02  psi, V
	  1.115e+00  -F*psi/RT
	  3.049e+00  exp(-F*psi/RT)
	  6.000e+02  specific area, m**2/g
	  6.000e+02  m**2 for   1.000e+00 g


Hfo_s         
	  1.000e-02  moles
	                                   Mole                     Log
	Species               Moles    Fraction    Molality    Molality

	Hfo_sO-           5.604e-03       0.560   5.604e-03      -2.251
	Hfo_sOHCa+2       1.972e-03       0.197   1.972e-03      -2.705
	Hfo_sOH           1.506e-03       0.151   1.506e-03      -2.822
	Hfo_sOHBa+2       6.606e-04       0.066   6.606e-04      -3.180
	Hfo_sOFe+         2.485e-04       0.025   2.485e-04      -3.605
	Hfo_sOH2+         9.267e-06       0.001   9.267e-06      -5.033

-----------------------------Exchange composition------------------------------

X                1.000e+00 mol

	                               Equiv-    Equivalent      Log 
	Species             Moles      alents      Fraction     Gamma

	NaX               9.723e-01   9.723e-01   9.723e-01    -0.075
	CaX2              1.218e-02   2.436e-02   2.436e-02    -0.288
	BaX2              1.694e-03   3.388e-03   3.388e-03    -0.294
	FeX2              1.649e-07   3.297e-07   3.297e-07    -0.281

-----------------------------Solution composition------------------------------

	Elements           Molality       Moles

	Ba                7.241e-07   7.241e-07
	C                 1.442e-02   1.442e-02
	Ca                9.585e-06   9.585e-06
	Cl                2.000e-03   2.000e-03
	Fe                4.251e-09   4.251e-09
	Na                2.975e-02   2.975e-02
	S                 2.355e-03   2.355e-03

----------------------------Description of solution----------------------------

                                       pH  =   9.985      Charge balance
                                       pe  =  -6.063      Adjusted to redox equilibrium
       Specific Conductance (uS/cm, 30 oC) = 2991
                          Density (g/cm3)  =   1.00596
                        Activity of water  =   0.999
                           Ionic strength  =   3.582e-02
                       Mass of water (kg)  =   1.000e+00
                 Total alkalinity (eq/kg)  =   2.294e-02
                       Total CO2 (mol/kg)  =   1.442e-02
                      Temperature (deg C)  =  30.00
                           Pressure (atm)  = 200.00
                  Electrical balance (eq)  =   1.196e-04
 Percent error, 100*(Cat-|An|)/(Cat+|An|)  =   0.22
                               Iterations  =  39
                                  Total H  = 1.110183e+02
                                  Total O  = 5.555890e+01

----------------------------Distribution of species----------------------------

                                            Log       Log         Log     mole V
   Species          Molality    Activity  Molality  Activity     Gamma   cm3/mol

   OH-             2.017e-04   1.681e-04    -3.695    -3.774    -0.079     -2.61
   H+              1.193e-10   1.035e-10    -9.923    -9.985    -0.062      0.00
   H2O             5.551e+01   9.992e-01     1.744    -0.000     0.000     17.94
Ba            7.241e-07
   Ba+2            3.221e-07   1.636e-07    -6.492    -6.786    -0.294    -10.68
   BaCO3           2.971e-07   2.996e-07    -6.527    -6.523     0.004     (0)  
   BaSO4           9.080e-08   9.156e-08    -7.042    -7.038     0.004     (0)  
   BaHCO3+         1.407e-08   1.182e-08    -7.852    -7.927    -0.076     (0)  
   BaOH+           6.369e-11   5.352e-11   -10.196   -10.272    -0.076     (0)  
C(-4)         1.523e-14
   CH4             1.523e-14   1.536e-14   -13.817   -13.814     0.004     33.00
C(4)          1.442e-02
   CO3-2           6.230e-03   3.205e-03    -2.206    -2.494    -0.289     -2.49
   HCO3-           6.023e-03   5.101e-03    -2.220    -2.292    -0.072     26.61
   NaCO3-          2.078e-03   1.746e-03    -2.682    -2.758    -0.076     -1.94
   NaHCO3          8.648e-05   8.720e-05    -4.063    -4.059     0.004     28.84
   CaCO3           6.262e-06   6.314e-06    -5.203    -5.200     0.004     25.00
   CO2             9.679e-07   9.759e-07    -6.014    -6.011     0.004     26.45
   BaCO3           2.971e-07   2.996e-07    -6.527    -6.523     0.004     (0)  
   CaHCO3+         1.135e-07   9.617e-08    -6.945    -7.017    -0.072     20.17
   BaHCO3+         1.407e-08   1.182e-08    -7.852    -7.927    -0.076     (0)  
   FeCO3           3.808e-09   3.840e-09    -8.419    -8.416     0.004     (0)  
   FeHCO3+         3.827e-11   3.215e-11   -10.417   -10.493    -0.076     (0)  
Ca            9.585e-06
   CaCO3           6.262e-06   6.314e-06    -5.203    -5.200     0.004     25.00
   Ca+2            2.930e-06   1.509e-06    -5.533    -5.821    -0.288    -17.65
   CaSO4           2.767e-07   2.790e-07    -6.558    -6.554     0.004     12.95
   CaHCO3+         1.135e-07   9.617e-08    -6.945    -7.017    -0.072     20.17
   CaOH+           2.877e-09   2.418e-09    -8.541    -8.617    -0.076     (0)  
   CaHSO4+         2.712e-16   2.279e-16   -15.567   -15.642    -0.076     (0)  
Cl            2.000e-03
   Cl-             2.000e-03   1.669e-03    -2.699    -2.778    -0.079     18.62
   FeCl+           1.369e-13   1.150e-13   -12.864   -12.939    -0.076     (0)  
   FeCl+2          6.378e-31   3.179e-31   -30.195   -30.498    -0.302     (0)  
   FeCl2+          2.413e-33   2.027e-33   -32.617   -32.693    -0.076     (0)  
   FeCl3           3.356e-37   3.383e-37   -36.474   -36.471     0.004     (0)  
Fe(2)         4.215e-09
   FeCO3           3.808e-09   3.840e-09    -8.419    -8.416     0.004     (0)  
   FeOH+           2.620e-10   2.201e-10    -9.582    -9.657    -0.076     (0)  
   Fe+2            9.532e-11   4.994e-11   -10.021   -10.302    -0.281    -21.82
   FeHCO3+         3.827e-11   3.215e-11   -10.417   -10.493    -0.076     (0)  
   FeSO4           1.076e-11   1.085e-11   -10.968   -10.965     0.004     (0)  
   FeCl+           1.369e-13   1.150e-13   -12.864   -12.939    -0.076     (0)  
   FeHSO4+         8.974e-21   7.540e-21   -20.047   -20.123    -0.076     (0)  
   Fe(HS)2         7.454e-25   7.516e-25   -24.128   -24.124     0.004     (0)  
   Fe(HS)3-        4.003e-34   3.363e-34   -33.398   -33.473    -0.076     (0)  
Fe(3)         3.668e-11
   Fe(OH)4-        3.404e-11   2.860e-11   -10.468   -10.544    -0.076     (0)  
   Fe(OH)3         2.644e-12   2.666e-12   -11.578   -11.574     0.004     (0)  
   Fe(OH)2+        2.059e-15   1.730e-15   -14.686   -14.762    -0.076     (0)  
   FeOH+2          9.014e-22   4.493e-22   -21.045   -21.347    -0.302     (0)  
   FeSO4+          8.767e-29   7.366e-29   -28.057   -28.133    -0.076     (0)  
   Fe+3            1.942e-29   5.397e-30   -28.712   -29.268    -0.556     (0)  
   Fe(SO4)2-       2.183e-30   1.834e-30   -29.661   -29.737    -0.076     (0)  
   FeCl+2          6.378e-31   3.179e-31   -30.195   -30.498    -0.302     (0)  
   FeCl2+          2.413e-33   2.027e-33   -32.617   -32.693    -0.076     (0)  
   FeCl3           3.356e-37   3.383e-37   -36.474   -36.471     0.004     (0)  
   FeHSO4+2        4.107e-38   2.047e-38   -37.387   -37.689    -0.302     (0)  
   Fe2(OH)2+4      0.000e+00   0.000e+00   -40.144   -41.353    -1.210     (0)  
   Fe3(OH)4+5      0.000e+00   0.000e+00   -52.102   -53.992    -1.890     (0)  
H(0)          1.634e-11
   H2              8.172e-12   8.240e-12   -11.088   -11.084     0.004     20.00
Na            2.975e-02
   Na+             2.743e-02   2.311e-02    -1.562    -1.636    -0.075     -1.01
   NaCO3-          2.078e-03   1.746e-03    -2.682    -2.758    -0.076     -1.94
   NaSO4-          1.501e-04   1.261e-04    -3.824    -3.899    -0.076     23.07
   NaHCO3          8.648e-05   8.720e-05    -4.063    -4.059     0.004     28.84
   NaOH            3.269e-16   3.296e-16   -15.486   -15.482     0.004     (0)  
O(0)          0.000e+00
   O2              0.000e+00   0.000e+00   -68.765   -68.761     0.004     35.00
S(-2)         2.834e-12
   HS-             2.819e-12   2.350e-12   -11.550   -11.629    -0.079     15.17
   S-2             1.322e-14   6.715e-15   -13.879   -14.173    -0.294     (0)  
   H2S             1.568e-15   1.581e-15   -14.805   -14.801     0.004     34.36
   Fe(HS)2         7.454e-25   7.516e-25   -24.128   -24.124     0.004     (0)  
   Fe(HS)3-        4.003e-34   3.363e-34   -33.398   -33.473    -0.076     (0)  
S(6)          2.355e-03
   SO4-2           2.205e-03   1.116e-03    -2.657    -2.952    -0.296     17.05
   NaSO4-          1.501e-04   1.261e-04    -3.824    -3.899    -0.076     23.07
   CaSO4           2.767e-07   2.790e-07    -6.558    -6.554     0.004     12.95
   BaSO4           9.080e-08   9.156e-08    -7.042    -7.038     0.004     (0)  
   HSO4-           1.495e-11   1.256e-11   -10.825   -10.901    -0.076     (0)  
   FeSO4           1.076e-11   1.085e-11   -10.968   -10.965     0.004     (0)  
   CaHSO4+         2.712e-16   2.279e-16   -15.567   -15.642    -0.076     (0)  
   FeHSO4+         8.974e-21   7.540e-21   -20.047   -20.123    -0.076     (0)  
   FeSO4+          8.767e-29   7.366e-29   -28.057   -28.133    -0.076     (0)  
   Fe(SO4)2-       2.183e-30   1.834e-30   -29.661   -29.737    -0.076     (0)  
   FeHSO4+2        4.107e-38   2.047e-38   -37.387   -37.689    -0.302     (0)  

------------------------------Saturation indices-------------------------------

	Phase               SI   log IAP   log K(303 K, 200 atm)

	Anhydrite        -4.65     -8.77   -4.12  CaSO4
	Aragonite        -0.13     -8.32   -8.18  CaCO3
	Barite           -0.00     -9.74   -9.74  BaSO4
	Calcite          -0.00     -8.32   -8.31  CaCO3
	CH4(g)          -11.13    -13.81   -2.68  CH4
	CO2(g)           -4.56     -6.01   -1.45  CO2
	Fe(OH)3(a)       -4.09      0.69    4.78  Fe(OH)3
	FeS(ppt)         -8.30    -11.95   -3.65  FeS
	Goethite          1.91      0.69   -1.22  FeOOH
	Gypsum           -4.32     -8.77   -4.45  CaSO4:2H2O
	H2(g)            -7.97    -11.08   -3.11  H2
	H2O(g)           -1.31     -0.00    1.31  H2O
	H2S(g)          -13.82    -21.61   -7.79  H2S
	Halite           -6.04     -4.41    1.63  NaCl
	Hematite          5.79      1.37   -4.42  Fe2O3
	Mackinawite      -7.56    -11.95   -4.38  FeS
	Melanterite     -10.69    -13.26   -2.57  FeSO4:7H2O
	O2(g)           -65.71    -68.76   -3.05  O2
	Pyrite           -7.83    -25.72  -17.89  FeS2
	Siderite         -2.06    -12.80  -10.73  FeCO3
	Sulfur          -11.91     -6.96    4.96  S
	Witherite        -0.93     -9.28   -8.35  BaCO3


Reaction step 3.

Using solution 2.	
Using exchange 2.	Exchange assemblage after simulation 3.
Using surface 2.	
Using pure phase assemblage 2.	
Using solid solution assemblage 2.	
Using gas phase 2.	
Using temperature 2.	
Using pressure 2.	
Using reaction 2.	
Using kinetics 2.	

Reaction 2.	

	  1.000e-03 moles of the following reaction have been added:

	                 Relative
	Reactant            moles

	NaCl                 1.00000

	                 Relative
	Element             moles
	Cl                   1.00000
	Na                   1.00000

Kinetics 2.	

	Time step: 10000 seconds

	Rate name       Delta Moles Total Moles   Reactant        Coefficient

	Calcite          -8.611e-07   1.000e+00   CaCO3                     1

----------------Fixed-pressure gas phase 2 dissolved completely----------------

-------------------------------Phase assemblage--------------------------------

                                                      Moles in assemblage
Phase               SI  log IAP  log K(T, P)   Initial       Final       Delta

Barite           -0.01    -9.67     -9.66    1.000e+01   9.998e+00  -2.428e-03

--------------------------------Solid solutions--------------------------------


Solid solution                Component        Moles  Delta moles   Mole fract

Calcite                                     8.58e-02
                                calcite     8.50e-02    -1.50e-02     9.91e-01
                               siderite     7.48e-04    -2.52e-04     8.72e-03

------------------------------Surface composition------------------------------

Hfo           
	 -7.835e-05  Surface charge, eq
	 -1.260e-02  sigma, C/m**2
	 -2.732e-02  psi, V
	  1.046e+00  -F*psi/RT
	  2.845e+00  exp(-F*psi/RT)
	  6.000e+02  specific area, m**2/g
	  6.000e+02  m**2 for   1.000e+00 g


Hfo_s         
	  1.000e-02  moles
	                                   Mole                     Log
	Species               Moles    Fraction    Molality    Molality

	Hfo_sO-           5.616e-03       0.562   5.616e-03      -2.251
	Hfo_sOHCa+2       1.984e-03       0.198   1.984e-03      -2.702
	Hfo_sOH           1.485e-03       0.149   1.485e-03      -2.828
	Hfo_sOHBa+2       6.537e-04       0.065   6.537e-04      -3.185
	Hfo_sOFe+         2.519e-04       0.025   2.519e-04      -3.599
	Hfo_sOH2+         8.999e-06       0.001   8.999e-06      -5.046

-----------------------------Exchange composition------------------------------

X                1.000e+00 mol

	                               Equiv-    Equivalent      Log 
	Species             Moles      alents      Fraction     Gamma

	NaX               9.705e-01   9.705e-01   9.705e-01    -0.076
	CaX2              1.296e-02   2.592e-02   2.592e-02    -0.293
	BaX2              1.773e-03   3.547e-03   3.547e-03    -0.299
	FeX2              1.739e-07   3.478e-07   3.478e-07    -0.285

-----------------------------Solution composition------------------------------

	Elements           Molality       Moles

	Ba                8.668e-07   8.668e-07
	C                 1.522e-02   1.522e-02
	Ca                1.048e-05   1.048e-05
	Cl                2.000e-03   2.000e-03
	Fe                5.242e-09   5.242e-09
	Na                3.147e-02   3.147e-02
	S                 2.428e-03   2.428e-03

----------------------------Description of solution----------------------------

                                       pH  =   9.962      Charge balance
                                       pe  =  -6.050      Adjusted to redox equilibrium
       Specific Conductance (uS/cm, 30 oC) = 3141
                          Density (g/cm3)  =   1.01034
                        Activity of water  =   0.999
                           Ionic strength  =   3.786e-02
                       Mass of water (kg)  =   1.000e+00
                 Total alkalinity (eq/kg)  =   2.452e-02
                       Total CO2 (mol/kg)  =   1.522e-02
                      Temperature (deg C)  =  30.00
                           Pressure (atm)  = 300.00
                  Electrical balance (eq)  =   1.162e-04
 Percent error, 100*(Cat-|An|)/(Cat+|An|)  =   0.20
                               Iterations  =  39
                                  Total H  = 1.110183e+02
                                  Total O  = 5.556158e+01

----------------------------Distribution of species----------------------------

                                            Log       Log         Log     mole V
   Species          Molality    Activity  Molality  Activity     Gamma   cm3/mol

   OH-             2.072e-04   1.721e-04    -3.684    -3.764    -0.081     -2.23
   H+              1.261e-10   1.092e-10    -9.899    -9.962    -0.063      0.00
   H2O             5.551e+01   9.992e-01     1.744    -0.000     0.000     17.86
Ba            8.668e-07
   Ba+2            3.752e-07   1.885e-07    -6.426    -6.725    -0.299     -9.68
   BaCO3           3.668e-07   3.700e-07    -6.436    -6.432     0.004     (0)  
   BaSO4           1.064e-07   1.073e-07    -6.973    -6.969     0.004     (0)  
   BaHCO3+         1.838e-08   1.540e-08    -7.736    -7.812    -0.077     (0)  
   BaOH+           6.974e-11   5.844e-11   -10.156   -10.233    -0.077     (0)  
C(-4)         1.523e-14
   CH4             1.523e-14   1.537e-14   -13.817   -13.813     0.004     33.00
C(4)          1.522e-02
   CO3-2           6.751e-03   3.437e-03    -2.171    -2.464    -0.293     -2.49
   HCO3-           6.040e-03   5.102e-03    -2.219    -2.292    -0.073     27.12
   NaCO3-          2.333e-03   1.955e-03    -2.632    -2.709    -0.077     -1.92
   NaHCO3          9.024e-05   9.103e-05    -4.045    -4.041     0.004     28.84
   CaCO3           6.565e-06   6.623e-06    -5.183    -5.179     0.004     25.00
   CO2             9.460e-07   9.542e-07    -6.024    -6.020     0.004     27.42
   BaCO3           3.668e-07   3.700e-07    -6.436    -6.432     0.004     (0)  
   CaHCO3+         1.285e-07   1.085e-07    -6.891    -6.965    -0.073     20.18
   BaHCO3+         1.838e-08   1.540e-08    -7.736    -7.812    -0.077     (0)  
   FeCO3           4.742e-09   4.783e-09    -8.324    -8.320     0.004     (0)  
   FeHCO3+         5.043e-11   4.225e-11   -10.297   -10.374    -0.077     (0)  
Ca            1.048e-05
   CaCO3           6.565e-06   6.623e-06    -5.183    -5.179     0.004     25.00
   Ca+2            3.469e-06   1.768e-06    -5.460    -5.752    -0.293    -17.55
   CaSO4           3.160e-07   3.188e-07    -6.500    -6.497     0.004     13.05
   CaHCO3+         1.285e-07   1.085e-07    -6.891    -6.965    -0.073     20.18
   CaOH+           3.205e-09   2.685e-09    -8.494    -8.571    -0.077     (0)  
   CaHSO4+         3.421e-16   2.866e-16   -15.466   -15.543    -0.077     (0)  
Cl            2.000e-03
   Cl-             2.000e-03   1.663e-03    -2.699    -2.779    -0.080     18.73
   FeCl+           1.590e-13   1.332e-13   -12.799   -12.875    -0.077     (0)  
   FeCl+2          7.706e-31   3.797e-31   -30.113   -30.421    -0.307     (0)  
   FeCl2+          2.881e-33   2.414e-33   -32.540   -32.617    -0.077     (0)  
   FeCl3           3.981e-37   4.016e-37   -36.400   -36.396     0.004     (0)  
Fe(2)         5.206e-09
   FeCO3           4.742e-09   4.783e-09    -8.324    -8.320     0.004     (0)  
   FeOH+           2.893e-10   2.424e-10    -9.539    -9.615    -0.077     (0)  
   Fe+2            1.119e-10   5.802e-11    -9.951   -10.236    -0.285    -21.82
   FeHCO3+         5.043e-11   4.225e-11   -10.297   -10.374    -0.077     (0)  
   FeSO4           1.271e-11   1.283e-11   -10.896   -10.892     0.004     (0)  
   FeCl+           1.590e-13   1.332e-13   -12.799   -12.875    -0.077     (0)  
   FeHSO4+         1.123e-20   9.405e-21   -19.950   -20.027    -0.077     (0)  
   Fe(HS)2         1.431e-24   1.443e-24   -23.844   -23.841     0.004     (0)  
   Fe(HS)3-        9.909e-34   8.302e-34   -33.004   -33.081    -0.077     (0)  
Fe(3)         3.572e-11
   Fe(OH)4-        3.302e-11   2.767e-11   -10.481   -10.558    -0.077     (0)  
   Fe(OH)3         2.697e-12   2.721e-12   -11.569   -11.565     0.004     (0)  
   Fe(OH)2+        2.224e-15   1.863e-15   -14.653   -14.730    -0.077     (0)  
   FeOH+2          1.036e-21   5.104e-22   -20.985   -21.292    -0.307     (0)  
   FeSO4+          1.072e-28   8.984e-29   -27.970   -28.047    -0.077     (0)  
   Fe+3            2.366e-29   6.468e-30   -28.626   -29.189    -0.563     (0)  
   Fe(SO4)2-       2.717e-30   2.276e-30   -29.566   -29.643    -0.077     (0)  
   FeCl+2          7.706e-31   3.797e-31   -30.113   -30.421    -0.307     (0)  
   FeCl2+          2.881e-33   2.414e-33   -32.540   -32.617    -0.077     (0)  
   FeCl3           3.981e-37   4.016e-37   -36.400   -36.396     0.004     (0)  
   FeHSO4+2        5.344e-38   2.634e-38   -37.272   -37.579    -0.307     (0)  
   Fe2(OH)2+4      0.000e+00   0.000e+00   -40.013   -41.242    -1.229     (0)  
   Fe3(OH)4+5      0.000e+00   0.000e+00   -51.929   -53.849    -1.921     (0)  
H(0)          1.577e-11
   H2              7.884e-12   7.953e-12   -11.103   -11.099     0.004     20.00
Na            3.147e-02
   Na+             2.889e-02   2.427e-02    -1.539    -1.615    -0.076     -0.92
   NaCO3-          2.333e-03   1.955e-03    -2.632    -2.709    -0.077     -1.92
   NaSO4-          1.584e-04   1.327e-04    -3.800    -3.877    -0.077     23.07
   NaHCO3          9.024e-05   9.103e-05    -4.045    -4.041     0.004     28.84
   NaOH            3.252e-16   3.280e-16   -15.488   -15.484     0.004     (0)  
O(0)          0.000e+00
   O2              0.000e+00   0.000e+00   -68.804   -68.800     0.004     35.00
S(-2)         2.807e-12
   HS-             2.789e-12   2.317e-12   -11.555   -11.635    -0.081     15.18
   S-2             1.629e-14   8.183e-15   -13.788   -14.087    -0.299     (0)  
   H2S             1.514e-15   1.528e-15   -14.820   -14.816     0.004     34.09
   Fe(HS)2         1.431e-24   1.443e-24   -23.844   -23.841     0.004     (0)  
   Fe(HS)3-        9.909e-34   8.302e-34   -33.004   -33.081    -0.077     (0)  
S(6)          2.428e-03
   SO4-2           2.269e-03   1.136e-03    -2.644    -2.945    -0.300     18.05
   NaSO4-          1.584e-04   1.327e-04    -3.800    -3.877    -0.077     23.07
   CaSO4           3.160e-07   3.188e-07    -6.500    -6.497     0.004     13.05
   BaSO4           1.064e-07   1.073e-07    -6.973    -6.969     0.004     (0)  
   HSO4-           1.609e-11   1.348e-11   -10.793   -10.870    -0.077     (0)  
   FeSO4           1.271e-11   1.283e-11   -10.896   -10.892     0.004     (0)  
   CaHSO4+         3.421e-16   2.866e-16   -15.466   -15.543    -0.077     (0)  
   FeHSO4+         1.123e-20   9.405e-21   -19.950   -20.027    -0.077     (0)  
   FeSO4+          1.072e-28   8.984e-29   -27.970   -28.047    -0.077     (0)  
   Fe(SO4)2-       2.717e-30   2.276e-30   -29.566   -29.643    -0.077     (0)  
   FeHSO4+2        5.344e-38   2.634e-38   -37.272   -37.579    -0.307     (0)  

------------------------------Saturation indices-------------------------------

	Phase               SI   log IAP   log K(303 K, 300 atm)

	Anhydrite        -4.65     -8.70   -4.05  CaSO4
	Aragonite        -0.13     -8.22   -8.09  CaCO3
	Barite           -0.00     -9.67   -9.67  BaSO4
	Calcite          -0.00     -8.22   -8.21  CaCO3
	CH4(g)          -11.23    -13.81   -2.59  CH4
	CO2(g)           -4.60     -6.02   -1.42  CO2
	Fe(OH)3(a)       -4.03      0.69    4.73  Fe(OH)3
	FeS(ppt)         -8.39    -11.91   -3.52  FeS
	Goethite          1.94      0.70   -1.25  FeOOH
	Gypsum           -4.31     -8.70   -4.39  CaSO4:2H2O
	H2(g)            -7.99    -11.10   -3.11  H2
	H2O(g)           -1.28     -0.00    1.28  H2O
	H2S(g)          -13.89    -21.60   -7.70  H2S
	Halite           -6.04     -4.39    1.64  NaCl
	Hematite          5.82      1.39   -4.43  Fe2O3
	Mackinawite      -7.65    -11.91   -4.26  FeS
	Melanterite     -10.40    -13.18   -2.78  FeSO4:7H2O
	O2(g)           -65.69    -68.80   -3.11  O2
	Pyrite           -8.01    -25.68  -17.67  FeS2
	Siderite         -2.06    -12.70  -10.64  FeCO3
	Sulfur          -12.04     -6.99    5.05  S
	Witherite        -0.93     -9.19   -8.25  BaCO3


-----------------------------------------
Beginning of batch-reaction calculations.
-----------------------------------------

Reaction step 1.

Using mix 3.	
Using exchange 3.	Exchange assemblage after simulation 3.
Using surface 3.	
Using pure phase assemblage 3.	
Using solid solution assemblage 3.	
Using gas phase 3.	
Using temperature 3.	
Using pressure 3.	
Using reaction 3.	
Using kinetics 3.	

Mixture 3.	

	  5.000e-01 Solution 2	Solution after simulation 14.                          
	  5.000e-01 Solution 3	                                                       

Reaction 3.	

	  1.000e-03 moles of the following reaction have been added:

	                 Relative
	Reactant            moles

	NaCl                 1.00000

	                 Relative
	Element             moles
	Cl                   1.00000
	Na                   1.00000

Kinetics 3.	

	Time step: 3333.33 seconds

	Rate name       Delta Moles Total Moles   Reactant        Coefficient

	Calcite          -2.898e-07   1.000e+00   CaCO3                     1

----------------Fixed-pressure gas phase 3 dissolved completely----------------

-------------------------------Phase assemblage--------------------------------

                                                      Moles in assemblage
Phase               SI  log IAP  log K(T, P)   Initial       Final       Delta

Barite            0.01    -9.81     -9.82    1.000e+01   9.998e+00  -1.582e-03

--------------------------------Solid solutions--------------------------------


Solid solution                Component        Moles  Delta moles   Mole fract

Calcite                                     9.11e-02
                                calcite     9.03e-02    -9.67e-03     9.91e-01
                               siderite     8.02e-04    -1.98e-04     8.80e-03

------------------------------Surface composition------------------------------

Hfo           
	 -8.698e-05  Surface charge, eq
	 -1.399e-02  sigma, C/m**2
	 -2.906e-02  psi, V
	  1.112e+00  -F*psi/RT
	  3.042e+00  exp(-F*psi/RT)
	  6.000e+02  specific area, m**2/g
	  6.000e+02  m**2 for   1.000e+00 g


Hfo_s         
	  1.000e-02  moles
	                                   Mole                     Log
	Species               Moles    Fraction    Molality    Molality

	Hfo_sO-           5.392e-03       0.539   5.392e-03      -2.268
	Hfo_sOHCa+2       1.949e-03       0.195   1.949e-03      -2.710
	Hfo_sOH           1.849e-03       0.185   1.849e-03      -2.733
	Hfo_sOHBa+2       5.978e-04       0.060   5.978e-04      -3.223
	Hfo_sOFe+         1.979e-04       0.020   1.979e-04      -3.704
	Hfo_sOH2+         1.452e-05       0.001   1.452e-05      -4.838

-----------------------------Exchange composition------------------------------

X                1.000e+00 mol

	                               Equiv-    Equivalent      Log 
	Species             Moles      alents      Fraction     Gamma

	NaX               9.826e-01   9.826e-01   9.826e-01    -0.079
	CaX2              7.714e-03   1.543e-02   1.543e-02    -0.304
	BaX2              9.841e-04   1.968e-03   1.968e-03    -0.310
	FeX2              1.072e-07   2.144e-07   2.144e-07    -0.296

-----------------------------Solution composition------------------------------

	Elements           Molality       Moles

	Ba                5.530e-07   5.530e-07
	C                 1.749e-02   1.749e-02
	Ca                8.824e-06   8.824e-06
	Cl                2.500e-03   2.500e-03
	Fe                3.433e-09   3.433e-09
	Na                3.463e-02   3.463e-02
	S                 2.796e-03   2.796e-03

----------------------------Description of solution----------------------------

                                       pH  =   9.878      Charge balance
                                       pe  =  -5.867      Adjusted to redox equilibrium
       Specific Conductance (uS/cm, 30 oC) = 3411
                          Density (g/cm3)  =   1.00189
                        Activity of water  =   0.999
                           Ionic strength  =   4.075e-02
                       Mass of water (kg)  =   1.000e+00
                 Total alkalinity (eq/kg)  =   2.638e-02
                       Total CO2 (mol/kg)  =   1.749e-02
                      Temperature (deg C)  =  30.00
                           Pressure (atm)  = 100.00
                  Electrical balance (eq)  =   1.829e-04
 Percent error, 100*(Cat-|An|)/(Cat+|An|)  =   0.29
                               Iterations  =  32
                                  Total H  = 1.110210e+02
                                  Total O  = 5.556985e+01

----------------------------Distribution of species----------------------------

                                            Log       Log         Log     mole V
   Species          Molality    Activity  Molality  Activity     Gamma   cm3/mol

   OH-             1.470e-04   1.212e-04    -3.833    -3.917    -0.084     -2.97
   H+              1.537e-10   1.324e-10    -9.813    -9.878    -0.065      0.00
   H2O             5.551e+01   9.991e-01     1.744    -0.000     0.000     18.02
Ba            5.530e-07
   Ba+2            2.477e-07   1.212e-07    -6.606    -6.916    -0.310    -11.63
   BaCO3           2.160e-07   2.181e-07    -6.665    -6.661     0.004     (0)  
   BaSO4           7.610e-08   7.682e-08    -7.119    -7.115     0.004     (0)  
   BaHCO3+         1.322e-08   1.101e-08    -7.879    -7.958    -0.080     (0)  
   BaOH+           3.723e-11   3.099e-11   -10.429   -10.509    -0.080     (0)  
C(-4)         6.717e-15
   CH4             6.717e-15   6.780e-15   -14.173   -14.169     0.004     33.00
C(4)          1.749e-02
   HCO3-           8.606e-03   7.223e-03    -2.065    -2.141    -0.076     26.13
   CO3-2           6.346e-03   3.150e-03    -2.198    -2.502    -0.304     -2.43
   NaCO3-          2.388e-03   1.988e-03    -2.622    -2.702    -0.080     -1.89
   NaHCO3          1.424e-04   1.438e-04    -3.846    -3.842     0.004     28.85
   CaCO3           5.962e-06   6.018e-06    -5.225    -5.221     0.004     25.00
   CO2             1.884e-06   1.902e-06    -5.725    -5.721     0.004     25.48
   BaCO3           2.160e-07   2.181e-07    -6.665    -6.661     0.004     (0)  
   CaHCO3+         1.370e-07   1.150e-07    -6.863    -6.939    -0.076     20.19
   BaHCO3+         1.322e-08   1.101e-08    -7.879    -7.958    -0.080     (0)  
   FeCO3           3.109e-09   3.139e-09    -8.507    -8.503     0.004     (0)  
   FeHCO3+         4.040e-11   3.362e-11   -10.394   -10.473    -0.080     (0)  
Ca            8.824e-06
   CaCO3           5.962e-06   6.018e-06    -5.225    -5.221     0.004     25.00
   Ca+2            2.456e-06   1.221e-06    -5.610    -5.913    -0.304    -17.71
   CaSO4           2.664e-07   2.690e-07    -6.574    -6.570     0.004     12.85
   CaHCO3+         1.370e-07   1.150e-07    -6.863    -6.939    -0.076     20.19
   CaOH+           1.837e-09   1.529e-09    -8.736    -8.816    -0.080     (0)  
   CaHSO4+         3.210e-16   2.671e-16   -15.494   -15.573    -0.080     (0)  
Cl            2.500e-03
   Cl-             2.500e-03   2.064e-03    -2.602    -2.685    -0.083     18.54
   FeCl+           1.422e-13   1.184e-13   -12.847   -12.927    -0.080     (0)  
   FeCl+2          1.072e-30   5.143e-31   -29.970   -30.289    -0.319     (0)  
   FeCl2+          4.875e-33   4.057e-33   -32.312   -32.392    -0.080     (0)  
   FeCl3           8.296e-37   8.374e-37   -36.081   -36.077     0.004     (0)  
Fe(2)         3.414e-09
   FeCO3           3.109e-09   3.139e-09    -8.507    -8.503     0.004     (0)  
   FeOH+           1.720e-10   1.431e-10    -9.765    -9.844    -0.080     (0)  
   Fe+2            8.205e-11   4.154e-11   -10.086   -10.381    -0.296    -21.76
   FeHCO3+         4.040e-11   3.362e-11   -10.394   -10.473    -0.080     (0)  
   FeSO4           1.013e-11   1.022e-11   -10.995   -10.991     0.004     (0)  
   FeCl+           1.422e-13   1.184e-13   -12.847   -12.927    -0.080     (0)  
   FeHSO4+         1.092e-20   9.088e-21   -19.962   -20.042    -0.080     (0)  
   Fe(HS)2         4.788e-26   4.833e-26   -25.320   -25.316     0.004     (0)  
   Fe(HS)3-        7.225e-36   6.013e-36   -35.141   -35.221    -0.080     (0)  
Fe(3)         1.843e-11
   Fe(OH)4-        1.678e-11   1.396e-11   -10.775   -10.855    -0.080     (0)  
   Fe(OH)3         1.650e-12   1.666e-12   -11.783   -11.778     0.004     (0)  
   Fe(OH)2+        1.662e-15   1.383e-15   -14.779   -14.859    -0.080     (0)  
   FeOH+2          9.574e-22   4.594e-22   -21.019   -21.338    -0.319     (0)  
   FeSO4+          1.311e-28   1.091e-28   -27.882   -27.962    -0.080     (0)  
   Fe+3            2.697e-29   7.060e-30   -28.569   -29.151    -0.582     (0)  
   Fe(SO4)2-       3.698e-30   3.078e-30   -29.432   -29.512    -0.080     (0)  
   FeCl+2          1.072e-30   5.143e-31   -29.970   -30.289    -0.319     (0)  
   FeCl2+          4.875e-33   4.057e-33   -32.312   -32.392    -0.080     (0)  
   FeCl3           8.296e-37   8.374e-37   -36.081   -36.077     0.004     (0)  
   FeHSO4+2        8.086e-38   3.879e-38   -37.092   -37.411    -0.319     (0)  
   Fe2(OH)2+4      0.000e+00   0.000e+00   -40.058   -41.334    -1.276     (0)  
   Fe3(OH)4+5      0.000e+00   0.000e+00   -52.077   -54.070    -1.993     (0)  
H(0)          1.171e-11
   H2              5.854e-12   5.909e-12   -11.233   -11.228     0.004     20.00
Na            3.463e-02
   Na+             3.190e-02   2.662e-02    -1.496    -1.575    -0.079     -1.09
   NaCO3-          2.388e-03   1.988e-03    -2.622    -2.702    -0.080     -1.89
   NaSO4-          2.025e-04   1.685e-04    -3.694    -3.773    -0.080     23.10
   NaHCO3          1.424e-04   1.438e-04    -3.846    -3.842     0.004     28.85
   NaOH            2.939e-16   2.967e-16   -15.532   -15.528     0.004     (0)  
O(0)          0.000e+00
   O2              0.000e+00   0.000e+00   -68.408   -68.404     0.004     35.00
S(-2)         1.048e-12
   HS-             1.044e-12   8.608e-13   -11.981   -12.065    -0.084     15.19
   S-2             2.982e-15   1.459e-15   -14.526   -14.836    -0.310     (0)  
   H2S             7.920e-16   7.995e-16   -15.101   -15.097     0.004     34.63
   Fe(HS)2         4.788e-26   4.833e-26   -25.320   -25.316     0.004     (0)  
   Fe(HS)3-        7.225e-36   6.013e-36   -35.141   -35.221    -0.080     (0)  
S(6)          2.796e-03
   SO4-2           2.593e-03   1.264e-03    -2.586    -2.898    -0.312     16.10
   NaSO4-          2.025e-04   1.685e-04    -3.694    -3.773    -0.080     23.10
   CaSO4           2.664e-07   2.690e-07    -6.574    -6.570     0.004     12.85
   BaSO4           7.610e-08   7.682e-08    -7.119    -7.115     0.004     (0)  
   HSO4-           2.186e-11   1.820e-11   -10.660   -10.740    -0.080     (0)  
   FeSO4           1.013e-11   1.022e-11   -10.995   -10.991     0.004     (0)  
   CaHSO4+         3.210e-16   2.671e-16   -15.494   -15.573    -0.080     (0)  
   FeHSO4+         1.092e-20   9.088e-21   -19.962   -20.042    -0.080     (0)  
   FeSO4+          1.311e-28   1.091e-28   -27.882   -27.962    -0.080     (0)  
   Fe(SO4)2-       3.698e-30   3.078e-30   -29.432   -29.512    -0.080     (0)  
   FeHSO4+2        8.086e-38   3.879e-38   -37.092   -37.411    -0.319     (0)  

------------------------------Saturation indices-------------------------------

	Phase               SI   log IAP   log K(303 K, 100 atm)

	Anhydrite        -4.61     -8.81   -4.20  CaSO4
	Aragonite        -0.14     -8.42   -8.28  CaCO3
	Barite            0.00     -9.81   -9.81  BaSO4
	Calcite          -0.00     -8.42   -8.41  CaCO3
	CH4(g)          -11.39    -14.17   -2.78  CH4
	CO2(g)           -4.23     -5.72   -1.49  CO2
	Fe(OH)3(a)       -4.35      0.48    4.84  Fe(OH)3
	FeS(ppt)         -8.79    -12.57   -3.78  FeS
	Goethite          1.68      0.48   -1.20  FeOOH
	Gypsum           -4.30     -8.81   -4.52  CaSO4:2H2O
	H2(g)            -8.12    -11.23   -3.11  H2
	H2O(g)           -1.35     -0.00    1.35  H2O
	H2S(g)          -14.06    -21.94   -7.88  H2S
	Halite           -5.87     -4.26    1.61  NaCl
	Hematite          5.36      0.96   -4.40  Fe2O3
	Mackinawite      -8.05    -12.57   -4.51  FeS
	Melanterite     -10.92    -13.28   -2.36  FeSO4:7H2O
	O2(g)           -65.42    -68.40   -2.99  O2
	Pyrite           -8.38    -26.49  -18.11  FeS2
	Siderite         -2.06    -12.88  -10.83  FeCO3
	Sulfur          -11.94     -7.07    4.86  S
	Witherite        -0.96     -9.42   -8.45  BaCO3


Reaction step 2.

Using mix 3.	
Using exchange 3.	Exchange assemblage after simulation 3.
Using surface 3.	
Using pure phase assemblage 3.	
Using solid solution assemblage 3.	
Using gas phase 3.	
Using temperature 3.	
Using pressure 3.	
Using reaction 3.	
Using kinetics 3.	

Mixture 3.	

	  5.000e-01 Solution 2	Solution after simulation 14.                          
	  5.000e-01 Solution 3	                                                       

Reaction 3.	

	  1.000e-03 moles of the following reaction have been added:

	                 Relative
	Reactant            moles

	NaCl                 1.00000

	                 Relative
	Element             moles
	Cl                   1.00000
	Na                   1.00000

Kinetics 3.	

	Time step: 6666.67 seconds

	Rate name       Delta Moles Total Moles   Reactant        Coefficient

	Calcite          -5.824e-07   1.000e+00   CaCO3                     1

----------------Fixed-pressure gas phase 3 dissolved completely----------------

-------------------------------Phase assemblage--------------------------------

                                                      Moles in assemblage
Phase               SI  log IAP  log K(T, P)   Initial       Final       Delta

Barite           -0.01    -9.74     -9.73    1.000e+01   9.998e+00  -1.661e-03

--------------------------------Solid solutions--------------------------------


Solid solution                Component        Moles  Delta moles   Mole fract

Calcite                                     9.04e-02
                                calcite     8.96e-02    -1.04e-02     9.91e-01
                               siderite     7.99e-04    -2.01e-04     8.84e-03

------------------------------Surface composition------------------------------

Hfo           
	 -8.256e-05  Surface charge, eq
	 -1.328e-02  sigma, C/m**2
	 -2.714e-02  psi, V
	  1.039e+00  -F*psi/RT
	  2.827e+00  exp(-F*psi/RT)
	  6.000e+02  specific area, m**2/g
	  6.000e+02  m**2 for   1.000e+00 g


Hfo_s         
	  1.000e-02  moles
	                                   Mole                     Log
	Species               Moles    Fraction    Molality    Molality

	Hfo_sO-           5.407e-03       0.541   5.407e-03      -2.267
	Hfo_sOHCa+2       1.960e-03       0.196   1.960e-03      -2.708
	Hfo_sOH           1.823e-03       0.182   1.823e-03      -2.739
	Hfo_sOHBa+2       5.953e-04       0.060   5.953e-04      -3.225
	Hfo_sOFe+         2.006e-04       0.020   2.006e-04      -3.698
	Hfo_sOH2+         1.408e-05       0.001   1.408e-05      -4.851

-----------------------------Exchange composition------------------------------

X                1.000e+00 mol

	                               Equiv-    Equivalent      Log 
	Species             Moles      alents      Fraction     Gamma

	NaX               9.810e-01   9.810e-01   9.810e-01    -0.080
	CaX2              8.430e-03   1.686e-02   1.686e-02    -0.307
	BaX2              1.066e-03   2.131e-03   2.131e-03    -0.314
	FeX2              1.161e-07   2.321e-07   2.321e-07    -0.299

-----------------------------Solution composition------------------------------

	Elements           Molality       Moles

	Ba                6.688e-07   6.688e-07
	C                 1.822e-02   1.822e-02
	Ca                9.637e-06   9.637e-06
	Cl                2.500e-03   2.500e-03
	Fe                4.241e-09   4.241e-09
	Na                3.623e-02   3.623e-02
	S                 2.875e-03   2.875e-03

----------------------------Description of solution----------------------------

                                       pH  =   9.853      Charge balance
                                       pe  =  -5.853      Adjusted to redox equilibrium
       Specific Conductance (uS/cm, 30 oC) = 3548
                          Density (g/cm3)  =   1.00633
                        Activity of water  =   0.999
                           Ionic strength  =   4.263e-02
                       Mass of water (kg)  =   1.000e+00
                 Total alkalinity (eq/kg)  =   2.782e-02
                       Total CO2 (mol/kg)  =   1.822e-02
                      Temperature (deg C)  =  30.00
                           Pressure (atm)  = 200.00
                  Electrical balance (eq)  =   1.785e-04
 Percent error, 100*(Cat-|An|)/(Cat+|An|)  =   0.27
                               Iterations  =  32
                                  Total H  = 1.110210e+02
                                  Total O  = 5.557236e+01

----------------------------Distribution of species----------------------------

                                            Log       Log         Log     mole V
   Species          Molality    Activity  Molality  Activity     Gamma   cm3/mol

   OH-             1.509e-04   1.241e-04    -3.821    -3.906    -0.085     -2.59
   H+              1.629e-10   1.401e-10    -9.788    -9.853    -0.065      0.00
   H2O             5.551e+01   9.990e-01     1.744    -0.000     0.000     17.94
Ba            6.688e-07
   Ba+2            2.921e-07   1.417e-07    -6.535    -6.849    -0.314    -10.63
   BaCO3           2.687e-07   2.713e-07    -6.571    -6.567     0.004     (0)  
   BaSO4           9.059e-08   9.148e-08    -7.043    -7.039     0.004     (0)  
   BaHCO3+         1.745e-08   1.449e-08    -7.758    -7.839    -0.081     (0)  
   BaOH+           4.122e-11   3.423e-11   -10.385   -10.466    -0.081     (0)  
C(-4)         6.791e-15
   CH4             6.791e-15   6.858e-15   -14.168   -14.164     0.004     33.00
C(4)          1.822e-02
   HCO3-           8.623e-03   7.223e-03    -2.064    -2.141    -0.077     26.64
   CO3-2           6.809e-03   3.352e-03    -2.167    -2.475    -0.308     -2.43
   NaCO3-          2.633e-03   2.187e-03    -2.580    -2.660    -0.081     -1.89
   NaHCO3          1.465e-04   1.479e-04    -3.834    -3.830     0.004     28.85
   CaCO3           6.251e-06   6.313e-06    -5.204    -5.200     0.004     25.00
   CO2             1.853e-06   1.871e-06    -5.732    -5.728     0.004     26.45
   BaCO3           2.687e-07   2.713e-07    -6.571    -6.567     0.004     (0)  
   CaHCO3+         1.554e-07   1.301e-07    -6.809    -6.886    -0.077     20.19
   BaHCO3+         1.745e-08   1.449e-08    -7.758    -7.839    -0.081     (0)  
   FeCO3           3.870e-09   3.909e-09    -8.412    -8.408     0.004     (0)  
   FeHCO3+         5.335e-11   4.430e-11   -10.273   -10.354    -0.081     (0)  
Ca            9.637e-06
   CaCO3           6.251e-06   6.313e-06    -5.204    -5.200     0.004     25.00
   Ca+2            2.924e-06   1.442e-06    -5.534    -5.841    -0.307    -17.61
   CaSO4           3.047e-07   3.077e-07    -6.516    -6.512     0.004     12.95
   CaHCO3+         1.554e-07   1.301e-07    -6.809    -6.886    -0.077     20.19
   CaOH+           2.054e-09   1.706e-09    -8.687    -8.768    -0.081     (0)  
   CaHSO4+         4.094e-16   3.400e-16   -15.388   -15.469    -0.081     (0)  
Cl            2.500e-03
   Cl-             2.500e-03   2.059e-03    -2.602    -2.686    -0.084     18.64
   FeCl+           1.663e-13   1.381e-13   -12.779   -12.860    -0.081     (0)  
   FeCl+2          1.304e-30   6.200e-31   -29.885   -30.208    -0.323     (0)  
   FeCl2+          5.875e-33   4.879e-33   -32.231   -32.312    -0.081     (0)  
   FeCl3           9.946e-37   1.004e-36   -36.002   -35.998     0.004     (0)  
Fe(2)         4.223e-09
   FeCO3           3.870e-09   3.909e-09    -8.412    -8.408     0.004     (0)  
   FeOH+           1.906e-10   1.583e-10    -9.720    -9.801    -0.081     (0)  
   Fe+2            9.675e-11   4.861e-11   -10.014   -10.313    -0.299    -21.76
   FeHCO3+         5.335e-11   4.430e-11   -10.273   -10.354    -0.081     (0)  
   FeSO4           1.206e-11   1.218e-11   -10.919   -10.914     0.004     (0)  
   FeCl+           1.663e-13   1.381e-13   -12.779   -12.860    -0.081     (0)  
   FeHSO4+         1.380e-20   1.146e-20   -19.860   -19.941    -0.081     (0)  
   Fe(HS)2         9.586e-26   9.681e-26   -25.018   -25.014     0.004     (0)  
   Fe(HS)3-        1.897e-35   1.576e-35   -34.722   -34.803    -0.081     (0)  
Fe(3)         1.789e-11
   Fe(OH)4-        1.620e-11   1.346e-11   -10.790   -10.871    -0.081     (0)  
   Fe(OH)3         1.682e-12   1.698e-12   -11.774   -11.770     0.004     (0)  
   Fe(OH)2+        1.797e-15   1.493e-15   -14.745   -14.826    -0.081     (0)  
   FeOH+2          1.103e-21   5.247e-22   -20.957   -21.280    -0.323     (0)  
   FeSO4+          1.618e-28   1.344e-28   -27.791   -27.872    -0.081     (0)  
   Fe+3            3.300e-29   8.533e-30   -28.481   -29.069    -0.587     (0)  
   Fe(SO4)2-       4.647e-30   3.860e-30   -29.333   -29.413    -0.081     (0)  
   FeCl+2          1.304e-30   6.200e-31   -29.885   -30.208    -0.323     (0)  
   FeCl2+          5.875e-33   4.879e-33   -32.231   -32.312    -0.081     (0)  
   FeCl3           9.946e-37   1.004e-36   -36.002   -35.998     0.004     (0)  
   FeHSO4+2        1.063e-37   5.054e-38   -36.974   -37.296    -0.323     (0)  
   Fe2(OH)2+4      1.181e-40   0.000e+00   -39.928   -41.218    -1.291     (0)  
   Fe3(OH)4+5      0.000e+00   0.000e+00   -51.905   -53.922    -2.017     (0)  
H(0)          1.133e-11
   H2              5.667e-12   5.723e-12   -11.247   -11.242     0.004     20.00
Na            3.623e-02
   Na+             3.324e-02   2.768e-02    -1.478    -1.558    -0.080     -1.00
   NaCO3-          2.633e-03   2.187e-03    -2.580    -2.660    -0.081     -1.89
   NaSO4-          2.098e-04   1.743e-04    -3.678    -3.759    -0.081     23.11
   NaHCO3          1.465e-04   1.479e-04    -3.834    -3.830     0.004     28.85
   NaOH            2.887e-16   2.915e-16   -15.540   -15.535     0.004     (0)  
O(0)          0.000e+00
   O2              0.000e+00   0.000e+00   -68.449   -68.445     0.004     35.00
S(-2)         1.044e-12
   HS-             1.040e-12   8.549e-13   -11.983   -12.068    -0.085     15.19
   S-2             3.719e-15   1.804e-15   -14.430   -14.744    -0.314     (0)  
   H2S             7.712e-16   7.789e-16   -15.113   -15.109     0.004     34.36
   Fe(HS)2         9.586e-26   9.681e-26   -25.018   -25.014     0.004     (0)  
   Fe(HS)3-        1.897e-35   1.576e-35   -34.722   -34.803    -0.081     (0)  
S(6)          2.875e-03
   SO4-2           2.665e-03   1.288e-03    -2.574    -2.890    -0.316     17.10
   NaSO4-          2.098e-04   1.743e-04    -3.678    -3.759    -0.081     23.11
   CaSO4           3.047e-07   3.077e-07    -6.516    -6.512     0.004     12.95
   BaSO4           9.059e-08   9.148e-08    -7.043    -7.039     0.004     (0)  
   HSO4-           2.362e-11   1.961e-11   -10.627   -10.707    -0.081     (0)  
   FeSO4           1.206e-11   1.218e-11   -10.919   -10.914     0.004     (0)  
   CaHSO4+         4.094e-16   3.400e-16   -15.388   -15.469    -0.081     (0)  
   FeHSO4+         1.380e-20   1.146e-20   -19.860   -19.941    -0.081     (0)  
   FeSO4+          1.618e-28   1.344e-28   -27.791   -27.872    -0.081     (0)  
   Fe(SO4)2-       4.647e-30   3.860e-30   -29.333   -29.413    -0.081     (0)  
   FeHSO4+2        1.063e-37   5.054e-38   -36.974   -37.296    -0.323     (0)  

------------------------------Saturation indices-------------------------------

	Phase               SI   log IAP   log K(303 K, 200 atm)

	Anhydrite        -4.61     -8.73   -4.12  CaSO4
	Aragonite        -0.13     -8.32   -8.18  CaCO3
	Barite            0.00     -9.74   -9.74  BaSO4
	Calcite          -0.00     -8.32   -8.31  CaCO3
	CH4(g)          -11.48    -14.16   -2.68  CH4
	CO2(g)           -4.27     -5.73   -1.45  CO2
	Fe(OH)3(a)       -4.29      0.49    4.78  Fe(OH)3
	FeS(ppt)         -8.88    -12.53   -3.65  FeS
	Goethite          1.71      0.49   -1.22  FeOOH
	Gypsum           -4.28     -8.73   -4.45  CaSO4:2H2O
	H2(g)            -8.13    -11.24   -3.11  H2
	H2O(g)           -1.31     -0.00    1.31  H2O
	H2S(g)          -14.13    -21.92   -7.79  H2S
	Halite           -5.87     -4.24    1.63  NaCl
	Hematite          5.40      0.98   -4.42  Fe2O3
	Mackinawite      -8.15    -12.53   -4.38  FeS
	Melanterite     -10.64    -13.21   -2.57  FeSO4:7H2O
	O2(g)           -65.39    -68.45   -3.05  O2
	Pyrite           -8.56    -26.45  -17.89  FeS2
	Siderite         -2.05    -12.79  -10.73  FeCO3
	Sulfur          -12.06     -7.11    4.96  S
	Witherite        -0.97     -9.32   -8.35  BaCO3


Reaction step 3.

Using mix 3.	
Using exchange 3.	Exchange assemblage after simulation 3.
Using surface 3.	
Using pure phase assemblage 3.	
Using solid solution assemblage 3.	
Using gas phase 3.	
Using temperature 3.	
Using pressure 3.	
Using reaction 3.	
Using kinetics 3.	

Mixture 3.	

	  5.000e-01 Solution 2	Solution after simulation 14.                          
	  5.000e-01 Solution 3	                                                       

Reaction 3.	

	  1.000e-03 moles of the following reaction have been added:

	                 Relative
	Reactant            moles

	NaCl                 1.00000

	                 Relative
	Element             moles
	Cl                   1.00000
	Na                   1.00000

Kinetics 3.	

	Time step: 10000 seconds

	Rate name       Delta Moles Total Moles   Reactant        Coefficient

	Calcite          -8.783e-07   1.000e+00   CaCO3                     1

----------------Fixed-pressure gas phase 3 dissolved completely----------------

-------------------------------Phase assemblage--------------------------------

                                                      Moles in assemblage
Phase               SI  log IAP  log K(T, P)   Initial       Final       Delta

Barite           -0.01    -9.67     -9.66    1.000e+01   9.998e+00  -1.729e-03

--------------------------------Solid solutions--------------------------------


Solid solution                Component        Moles  Delta moles   Mole fract

Calcite                                     8.96e-02
                                calcite     8.88e-02    -1.12e-02     9.91e-01
                               siderite     7.97e-04    -2.03e-04     8.89e-03

------------------------------Surface composition------------------------------

Hfo           
	 -7.800e-05  Surface charge, eq
	 -1.254e-02  sigma, C/m**2
	 -2.522e-02  psi, V
	  9.656e-01  -F*psi/RT
	  2.626e+00  exp(-F*psi/RT)
	  6.000e+02  specific area, m**2/g
	  6.000e+02  m**2 for   1.000e+00 g


Hfo_s         
	  1.000e-02  moles
	                                   Mole                     Log
	Species               Moles    Fraction    Molality    Molality

	Hfo_sO-           5.419e-03       0.542   5.419e-03      -2.266
	Hfo_sOHCa+2       1.974e-03       0.197   1.974e-03      -2.705
	Hfo_sOH           1.802e-03       0.180   1.802e-03      -2.744
	Hfo_sOHBa+2       5.878e-04       0.059   5.878e-04      -3.231
	Hfo_sOFe+         2.032e-04       0.020   2.032e-04      -3.692
	Hfo_sOH2+         1.374e-05       0.001   1.374e-05      -4.862

-----------------------------Exchange composition------------------------------

X                1.000e+00 mol

	                               Equiv-    Equivalent      Log 
	Species             Moles      alents      Fraction     Gamma

	NaX               9.793e-01   9.793e-01   9.793e-01    -0.080
	CaX2              9.200e-03   1.840e-02   1.840e-02    -0.310
	BaX2              1.141e-03   2.281e-03   2.281e-03    -0.318
	FeX2              1.257e-07   2.513e-07   2.513e-07    -0.302

-----------------------------Solution composition------------------------------

	Elements           Molality       Moles

	Ba                8.003e-07   8.003e-07
	C                 1.901e-02   1.901e-02
	Ca                1.056e-05   1.056e-05
	Cl                2.500e-03   2.500e-03
	Fe                5.248e-09   5.248e-09
	Na                3.791e-02   3.791e-02
	S                 2.943e-03   2.943e-03

----------------------------Description of solution----------------------------

                                       pH  =   9.827      Charge balance
                                       pe  =  -5.836      Adjusted to redox equilibrium
       Specific Conductance (uS/cm, 30 oC) = 3691
                          Density (g/cm3)  =   1.01070
                        Activity of water  =   0.999
                           Ionic strength  =   4.460e-02
                       Mass of water (kg)  =   1.000e+00
                 Total alkalinity (eq/kg)  =   2.938e-02
                       Total CO2 (mol/kg)  =   1.901e-02
                      Temperature (deg C)  =  30.00
                           Pressure (atm)  = 300.00
                  Electrical balance (eq)  =   1.740e-04
 Percent error, 100*(Cat-|An|)/(Cat+|An|)  =   0.25
                               Iterations  =  32
                                  Total H  = 1.110210e+02
                                  Total O  = 5.557499e+01

----------------------------Distribution of species----------------------------

                                            Log       Log         Log     mole V
   Species          Molality    Activity  Molality  Activity     Gamma   cm3/mol

   OH-             1.539e-04   1.262e-04    -3.813    -3.899    -0.086     -2.21
   H+              1.732e-10   1.488e-10    -9.761    -9.827    -0.066      0.00
   H2O             5.551e+01   9.990e-01     1.744    -0.000     0.000     17.86
Ba            8.003e-07
   Ba+2            3.408e-07   1.639e-07    -6.468    -6.785    -0.318     -9.63
   BaCO3           3.305e-07   3.340e-07    -6.481    -6.476     0.004     (0)  
   BaSO4           1.061e-07   1.072e-07    -6.974    -6.970     0.004     (0)  
   BaHCO3+         2.286e-08   1.894e-08    -7.641    -7.723    -0.082     (0)  
   BaOH+           4.500e-11   3.729e-11   -10.347   -10.428    -0.082     (0)  
C(-4)         6.761e-15
   CH4             6.761e-15   6.831e-15   -14.170   -14.165     0.004     33.00
C(4)          1.901e-02
   HCO3-           8.636e-03   7.219e-03    -2.064    -2.142    -0.078     27.14
   CO3-2           7.307e-03   3.567e-03    -2.136    -2.448    -0.311     -2.43
   NaCO3-          2.905e-03   2.407e-03    -2.537    -2.618    -0.082     -1.88
   NaHCO3          1.513e-04   1.528e-04    -3.820    -3.816     0.004     28.85
   CaCO3           6.554e-06   6.622e-06    -5.183    -5.179     0.004     25.00
   CO2             1.822e-06   1.841e-06    -5.739    -5.735     0.004     27.42
   BaCO3           3.305e-07   3.340e-07    -6.481    -6.476     0.004     (0)  
   CaHCO3+         1.768e-07   1.478e-07    -6.752    -6.830    -0.078     20.19
   BaHCO3+         2.286e-08   1.894e-08    -7.641    -7.723    -0.082     (0)  
   FeCO3           4.821e-09   4.871e-09    -8.317    -8.312     0.004     (0)  
   FeHCO3+         7.075e-11   5.863e-11   -10.150   -10.232    -0.082     (0)  
Ca            1.056e-05
   CaCO3           6.554e-06   6.622e-06    -5.183    -5.179     0.004     25.00
   Ca+2            3.478e-06   1.701e-06    -5.459    -5.769    -0.310    -17.52
   CaSO4           3.490e-07   3.526e-07    -6.457    -6.453     0.004     13.05
   CaHCO3+         1.768e-07   1.478e-07    -6.752    -6.830    -0.078     20.19
   CaOH+           2.288e-09   1.896e-09    -8.641    -8.722    -0.082     (0)  
   CaHSO4+         5.209e-16   4.316e-16   -15.283   -15.365    -0.082     (0)  
Cl            2.500e-03
   Cl-             2.500e-03   2.053e-03    -2.602    -2.688    -0.085     18.74
   FeCl+           1.947e-13   1.614e-13   -12.711   -12.792    -0.082     (0)  
   FeCl+2          1.597e-30   7.529e-31   -29.797   -30.123    -0.326     (0)  
   FeCl2+          7.131e-33   5.909e-33   -32.147   -32.228    -0.082     (0)  
   FeCl3           1.201e-36   1.213e-36   -35.920   -35.916     0.004     (0)  
Fe(2)         5.231e-09
   FeCO3           4.821e-09   4.871e-09    -8.317    -8.312     0.004     (0)  
   FeOH+           2.106e-10   1.745e-10    -9.677    -9.758    -0.082     (0)  
   Fe+2            1.142e-10   5.693e-11    -9.942   -10.245    -0.302    -21.76
   FeHCO3+         7.075e-11   5.863e-11   -10.150   -10.232    -0.082     (0)  
   FeSO4           1.430e-11   1.445e-11   -10.845   -10.840     0.004     (0)  
   FeCl+           1.947e-13   1.614e-13   -12.711   -12.792    -0.082     (0)  
   FeHSO4+         1.743e-20   1.444e-20   -19.759   -19.840    -0.082     (0)  
   Fe(HS)2         1.824e-25   1.843e-25   -24.739   -24.734     0.004     (0)  
   Fe(HS)3-        4.617e-35   3.826e-35   -34.336   -34.417    -0.082     (0)  
Fe(3)         1.725e-11
   Fe(OH)4-        1.554e-11   1.288e-11   -10.808   -10.890    -0.082     (0)  
   Fe(OH)3         1.709e-12   1.727e-12   -11.767   -11.763     0.004     (0)  
   Fe(OH)2+        1.944e-15   1.611e-15   -14.711   -14.793    -0.082     (0)  
   FeOH+2          1.276e-21   6.015e-22   -20.894   -21.221    -0.326     (0)  
   FeSO4+          2.000e-28   1.657e-28   -27.699   -27.781    -0.082     (0)  
   Fe+3            4.068e-29   1.039e-29   -28.391   -28.983    -0.593     (0)  
   Fe(SO4)2-       5.820e-30   4.823e-30   -29.235   -29.317    -0.082     (0)  
   FeCl+2          1.597e-30   7.529e-31   -29.797   -30.123    -0.326     (0)  
   FeCl2+          7.131e-33   5.909e-33   -32.147   -32.228    -0.082     (0)  
   FeCl3           1.201e-36   1.213e-36   -35.920   -35.916     0.004     (0)  
   FeHSO4+2        1.404e-37   6.620e-38   -36.853   -37.179    -0.326     (0)  
   Fe2(OH)2+4      1.607e-40   0.000e+00   -39.794   -41.100    -1.306     (0)  
   Fe3(OH)4+5      0.000e+00   0.000e+00   -51.729   -53.770    -2.041     (0)  
H(0)          1.091e-11
   H2              5.454e-12   5.510e-12   -11.263   -11.259     0.004     20.00
Na            3.791e-02
   Na+             3.464e-02   2.878e-02    -1.460    -1.541    -0.080     -0.91
   NaCO3-          2.905e-03   2.407e-03    -2.537    -2.618    -0.082     -1.88
   NaSO4-          2.183e-04   1.809e-04    -3.661    -3.743    -0.082     23.11
   NaHCO3          1.513e-04   1.528e-04    -3.820    -3.816     0.004     28.85
   NaOH            2.826e-16   2.855e-16   -15.549   -15.544     0.004     (0)  
O(0)          0.000e+00
   O2              0.000e+00   0.000e+00   -68.486   -68.481     0.004     35.00
S(-2)         1.025e-12
   HS-             1.020e-12   8.363e-13   -11.992   -12.078    -0.086     15.19
   S-2             4.504e-15   2.167e-15   -14.346   -14.664    -0.318     (0)  
   H2S             7.438e-16   7.514e-16   -15.129   -15.124     0.004     34.09
   Fe(HS)2         1.824e-25   1.843e-25   -24.739   -24.734     0.004     (0)  
   Fe(HS)3-        4.617e-35   3.826e-35   -34.336   -34.417    -0.082     (0)  
S(6)          2.943e-03
   SO4-2           2.724e-03   1.305e-03    -2.565    -2.884    -0.320     18.10
   NaSO4-          2.183e-04   1.809e-04    -3.661    -3.743    -0.082     23.11
   CaSO4           3.490e-07   3.526e-07    -6.457    -6.453     0.004     13.05
   BaSO4           1.061e-07   1.072e-07    -6.974    -6.970     0.004     (0)  
   HSO4-           2.546e-11   2.110e-11   -10.594   -10.676    -0.082     (0)  
   FeSO4           1.430e-11   1.445e-11   -10.845   -10.840     0.004     (0)  
[...]
   Fe3(OH)4+5      0.000e+00   0.000e+00   -52.024   -54.075    -2.051     (0)  
H(0)          1.419e-11
   H2              7.095e-12   7.168e-12   -11.149   -11.145     0.004     20.00
Na            3.855e-02
   Na+             3.548e-02   2.946e-02    -1.450    -1.531    -0.081     -0.99
   NaCO3-          2.650e-03   2.194e-03    -2.577    -2.659    -0.082     -1.87
   NaSO4-          2.272e-04   1.881e-04    -3.644    -3.726    -0.082     23.12
   NaHCO3          1.947e-04   1.967e-04    -3.711    -3.706     0.004     28.85
   NaOH            2.317e-16   2.341e-16   -15.635   -15.631     0.004     (0)  
O(0)          0.000e+00
   O2              0.000e+00   0.000e+00   -68.645   -68.641     0.004     35.00
S(-2)         3.466e-12
   HS-             3.453e-12   2.829e-12   -11.462   -11.548    -0.087     15.19
   S-2             9.401e-15   4.506e-15   -14.027   -14.346    -0.319     (0)  
   H2S             3.381e-15   3.416e-15   -14.471   -14.467     0.004     34.36
   Fe(HS)2         1.147e-24   1.158e-24   -23.941   -23.936     0.004     (0)  
   Fe(HS)3-        7.537e-34   6.240e-34   -33.123   -33.205    -0.082     (0)  
S(6)          2.964e-03
   SO4-2           2.737e-03   1.306e-03    -2.563    -2.884    -0.321     17.12
   NaSO4-          2.272e-04   1.881e-04    -3.644    -3.726    -0.082     23.12
   CaSO4           3.275e-07   3.309e-07    -6.485    -6.480     0.004     12.95
   BaSO4           9.052e-08   9.146e-08    -7.043    -7.039     0.004     (0)  
   HSO4-           3.184e-11   2.636e-11   -10.497   -10.579    -0.082     (0)  
   FeSO4           1.336e-11   1.350e-11   -10.874   -10.870     0.004     (0)  
   CaHSO4+         5.852e-16   4.845e-16   -15.233   -15.315    -0.082     (0)  
   FeHSO4+         2.034e-20   1.684e-20   -19.692   -19.774    -0.082     (0)  
   FeSO4+          2.130e-28   1.763e-28   -27.672   -27.754    -0.082     (0)  
   Fe(SO4)2-       6.205e-30   5.137e-30   -29.207   -29.289    -0.082     (0)  
   FeHSO4+2        1.871e-37   8.790e-38   -36.728   -37.056    -0.328     (0)  

------------------------------Saturation indices-------------------------------

	Phase               SI   log IAP   log K(303 K, 200 atm)

	Anhydrite        -4.58     -8.70   -4.12  CaSO4
	Aragonite        -0.13     -8.32   -8.18  CaCO3
	Barite           -0.00     -9.74   -9.74  BaSO4
	Calcite          -0.00     -8.32   -8.31  CaCO3
	CH4(g)          -10.87    -13.55   -2.68  CH4
	CO2(g)           -4.06     -5.51   -1.45  CO2
	Fe(OH)3(a)       -4.54      0.24    4.78  Fe(OH)3
	FeS(ppt)         -8.44    -12.09   -3.65  FeS
	Goethite          1.46      0.24   -1.22  FeOOH
	Gypsum           -4.25     -8.70   -4.45  CaSO4:2H2O
	H2(g)            -8.03    -11.14   -3.11  H2
	H2O(g)           -1.31     -0.00    1.31  H2O
	H2S(g)          -13.49    -21.28   -7.79  H2S
	Halite           -5.77     -4.14    1.63  NaCl
	Hematite          4.89      0.47   -4.42  Fe2O3
	Mackinawite      -7.71    -12.09   -4.38  FeS
	Melanterite     -10.59    -13.16   -2.57  FeSO4:7H2O
	O2(g)           -65.59    -68.64   -3.05  O2
	Pyrite           -7.58    -25.47  -17.89  FeS2
	Siderite         -2.04    -12.78  -10.73  FeCO3
	Sulfur          -11.52     -6.56    4.96  S
	Witherite        -1.00     -9.36   -8.35  BaCO3


Reaction step 3.

Using mix 1.	
Using exchange 1.	Exchange assemblage after simulation 3.
Using surface 1.	
Using pure phase assemblage 1.	
Using solid solution assemblage 1.	
Using gas phase 1.	
Using temperature 1.	
Using pressure 1.	
Using reaction 1.	
Using kinetics 1.	

Mixture 1.	

	  5.000e-01 Solution 1	                                                       

Reaction 1.	

	  1.000e-03 moles of the following reaction have been added:

	                 Relative
	Reactant            moles

	NaCl                 1.00000

	                 Relative
	Element             moles
	Cl                   1.00000
	Na                   1.00000

Kinetics 1.	

	Time step: 1 seconds

	Rate name       Delta Moles Total Moles   Reactant        Coefficient

	Calcite          -9.028e-11   1.000e+00   CaCO3                     1

----------------Fixed-pressure gas phase 1 dissolved completely----------------

-------------------------------Phase assemblage--------------------------------

                                                      Moles in assemblage
Phase               SI  log IAP  log K(T, P)   Initial       Final       Delta

Barite           -0.01    -9.67     -9.66    1.000e+01   9.998e+00  -1.530e-03

--------------------------------Solid solutions--------------------------------


Solid solution                Component        Moles  Delta moles   Mole fract

Calcite                                     9.04e-02
                                calcite     8.96e-02    -1.04e-02     9.91e-01
                               siderite     8.26e-04    -1.74e-04     9.14e-03

------------------------------Surface composition------------------------------

Hfo           
	 -7.159e-05  Surface charge, eq
	 -1.151e-02  sigma, C/m**2
	 -2.270e-02  psi, V
	  8.688e-01  -F*psi/RT
	  2.384e+00  exp(-F*psi/RT)
	  6.000e+02  specific area, m**2/g
	  6.000e+02  m**2 for   1.000e+00 g


Hfo_s         
	  1.000e-02  moles
	                                   Mole                     Log
	Species               Moles    Fraction    Molality    Molality

	Hfo_sO-           5.247e-03       0.525   1.049e-02      -1.979
	Hfo_sOH           2.069e-03       0.207   4.137e-03      -2.383
	Hfo_sOHCa+2       1.947e-03       0.195   3.893e-03      -2.410
	Hfo_sOHBa+2       5.449e-04       0.054   1.090e-03      -2.963
	Hfo_sOFe+         1.737e-04       0.017   3.475e-04      -3.459
	Hfo_sOH2+         1.868e-05       0.002   3.737e-05      -4.428

-----------------------------Exchange composition------------------------------

X                1.000e+00 mol

	                               Equiv-    Equivalent      Log 
	Species             Moles      alents      Fraction     Gamma

	NaX               9.812e-01   9.812e-01   9.812e-01    -0.082
	CaX2              8.439e-03   1.688e-02   1.688e-02    -0.317
	BaX2              9.846e-04   1.969e-03   1.969e-03    -0.324
	FeX2              1.184e-07   2.368e-07   2.368e-07    -0.308

-----------------------------Solution composition------------------------------

	Elements           Molality       Moles

	Ba                7.836e-07   3.918e-07
	C                 2.116e-02   1.058e-02
	Ca                1.083e-05   5.415e-06
	Cl                3.000e-03   1.500e-03
	Fe                5.365e-09   2.682e-09
	Na                4.070e-02   2.035e-02
	S                 3.060e-03   1.530e-03

----------------------------Description of solution----------------------------

                                       pH  =   9.712      Charge balance
                                       pe  =  -5.776      Adjusted to redox equilibrium
       Specific Conductance (uS/cm, 30 oC) = 3930
                          Density (g/cm3)  =   1.01085
                        Activity of water  =   0.999
                           Ionic strength  =   4.708e-02
                       Mass of water (kg)  =   5.000e-01
                 Total alkalinity (eq/kg)  =   3.138e-02
                       Total CO2 (mol/kg)  =   2.116e-02
                      Temperature (deg C)  =  30.00
                           Pressure (atm)  = 300.00
                  Electrical balance (eq)  =   1.094e-04
 Percent error, 100*(Cat-|An|)/(Cat+|An|)  =   0.29
                               Iterations  =  36
                                  Total H  = 5.551166e+01
                                  Total O  = 2.779095e+01

----------------------------Distribution of species----------------------------

                                            Log       Log         Log     mole V
   Species          Molality    Activity  Molality  Activity     Gamma   cm3/mol

   OH-             1.184e-04   9.667e-05    -3.927    -4.015    -0.088     -2.20
   H+              2.267e-10   1.943e-10    -9.645    -9.712    -0.067      0.00
   H2O             5.551e+01   9.989e-01     1.744    -0.000     0.000     17.86
Ba            7.836e-07
   Ba+2            3.391e-07   1.607e-07    -6.470    -6.794    -0.324     -9.61
   BaCO3           3.104e-07   3.138e-07    -6.508    -6.503     0.005     (0)  
   BaSO4           1.060e-07   1.072e-07    -6.975    -6.970     0.005     (0)  
   BaHCO3+         2.814e-08   2.323e-08    -7.551    -7.634    -0.083     (0)  
   BaOH+           3.391e-11   2.799e-11   -10.470   -10.553    -0.083     (0)  
C(-4)         3.074e-14
   CH4             3.074e-14   3.107e-14   -13.512   -13.508     0.005     33.00
C(4)          2.116e-02
   HCO3-           1.085e-02   9.035e-03    -1.965    -2.044    -0.079     27.15
   CO3-2           7.104e-03   3.419e-03    -2.149    -2.466    -0.318     -2.41
   NaCO3-          2.995e-03   2.473e-03    -2.524    -2.607    -0.083     -1.86
   NaHCO3          2.028e-04   2.050e-04    -3.693    -3.688     0.005     28.85
   CaCO3           6.549e-06   6.620e-06    -5.184    -5.179     0.005     25.00
   CO2             2.976e-06   3.008e-06    -5.526    -5.522     0.005     27.42
   BaCO3           3.104e-07   3.138e-07    -6.508    -6.503     0.005     (0)  
   CaHCO3+         2.316e-07   1.929e-07    -6.635    -6.715    -0.079     20.20
   BaHCO3+         2.814e-08   2.323e-08    -7.551    -7.634    -0.083     (0)  
   FeCO3           4.949e-09   5.003e-09    -8.306    -8.301     0.005     (0)  
   FeHCO3+         9.523e-11   7.862e-11   -10.021   -10.104    -0.083     (0)  
Ca            1.083e-05
   CaCO3           6.549e-06   6.620e-06    -5.184    -5.179     0.005     25.00
   Ca+2            3.677e-06   1.774e-06    -5.435    -5.751    -0.317    -17.50
   CaSO4           3.710e-07   3.751e-07    -6.431    -6.426     0.005     13.05
   CaHCO3+         2.316e-07   1.929e-07    -6.635    -6.715    -0.079     20.20
   CaOH+           1.834e-09   1.514e-09    -8.737    -8.820    -0.083     (0)  
   CaHSO4+         7.258e-16   5.992e-16   -15.139   -15.222    -0.083     (0)  
Cl            3.000e-03
   Cl-             3.000e-03   2.454e-03    -2.523    -2.610    -0.087     18.74
   FeCl+           2.503e-13   2.066e-13   -12.602   -12.685    -0.083     (0)  
   FeCl+2          2.384e-30   1.107e-30   -29.623   -29.956    -0.333     (0)  
   FeCl2+          1.258e-32   1.039e-32   -31.900   -31.984    -0.083     (0)  
   FeCl3           2.521e-36   2.548e-36   -35.598   -35.594     0.005     (0)  
Fe(2)         5.357e-09
   FeCO3           4.949e-09   5.003e-09    -8.306    -8.301     0.005     (0)  
   FeOH+           1.735e-10   1.432e-10    -9.761    -9.844    -0.083     (0)  
   Fe+2            1.240e-10   6.100e-11    -9.907   -10.215    -0.308    -21.74
   FeHCO3+         9.523e-11   7.862e-11   -10.021   -10.104    -0.083     (0)  
   FeSO4           1.562e-11   1.579e-11   -10.806   -10.802     0.005     (0)  
   FeCl+           2.503e-13   2.066e-13   -12.602   -12.685    -0.083     (0)  
   FeHSO4+         2.496e-20   2.060e-20   -19.603   -19.686    -0.083     (0)  
   Fe(HS)2         2.683e-24   2.712e-24   -23.571   -23.567     0.005     (0)  
   Fe(HS)3-        2.527e-33   2.086e-33   -32.597   -32.681    -0.083     (0)  
Fe(3)         7.554e-12
   Fe(OH)4-        6.608e-12   5.455e-12   -11.180   -11.263    -0.083     (0)  
   Fe(OH)3         9.445e-13   9.548e-13   -12.025   -12.020     0.005     (0)  
   Fe(OH)2+        1.409e-15   1.163e-15   -14.851   -14.934    -0.083     (0)  
   FeOH+2          1.221e-21   5.671e-22   -20.913   -21.246    -0.333     (0)  
   FeSO4+          2.520e-28   2.081e-28   -27.599   -27.682    -0.083     (0)  
   Fe+3            5.124e-29   1.279e-29   -28.290   -28.893    -0.603     (0)  
   Fe(SO4)2-       7.479e-30   6.174e-30   -29.126   -29.209    -0.083     (0)  
   FeCl+2          2.384e-30   1.107e-30   -29.623   -29.956    -0.333     (0)  
   FeCl2+          1.258e-32   1.039e-32   -31.900   -31.984    -0.083     (0)  
   FeCl3           2.521e-36   2.548e-36   -35.598   -35.594     0.005     (0)  
   FeHSO4+2        2.336e-37   1.085e-37   -36.632   -36.965    -0.333     (0)  
   Fe2(OH)2+4      1.517e-40   0.000e+00   -39.819   -41.151    -1.332     (0)  
   Fe3(OH)4+5      0.000e+00   0.000e+00   -51.881   -53.962    -2.081     (0)  
H(0)          1.408e-11
   H2              7.039e-12   7.116e-12   -11.152   -11.148     0.005     20.00
Na            4.070e-02
   Na+             3.726e-02   3.084e-02    -1.429    -1.511    -0.082     -0.90
   NaCO3-          2.995e-03   2.473e-03    -2.524    -2.607    -0.083     -1.86
   NaSO4-          2.394e-04   1.977e-04    -3.621    -3.704    -0.083     23.13
   NaHCO3          2.028e-04   2.050e-04    -3.693    -3.688     0.005     28.85
   NaOH            2.318e-16   2.343e-16   -15.635   -15.630     0.005     (0)  
O(0)          0.000e+00
   O2              0.000e+00   0.000e+00   -68.708   -68.703     0.005     35.00
S(-2)         3.812e-12
   HS-             3.796e-12   3.099e-12   -11.421   -11.509    -0.088     15.20
   S-2             1.298e-14   6.150e-15   -13.887   -14.211    -0.324     (0)  
   H2S             3.597e-15   3.636e-15   -14.444   -14.439     0.005     34.09
   Fe(HS)2         2.683e-24   2.712e-24   -23.571   -23.567     0.005     (0)  
   Fe(HS)3-        2.527e-33   2.086e-33   -32.597   -32.681    -0.083     (0)  
S(6)          3.060e-03
   SO4-2           2.820e-03   1.331e-03    -2.550    -2.876    -0.326     18.12
   NaSO4-          2.394e-04   1.977e-04    -3.621    -3.704    -0.083     23.13
   CaSO4           3.710e-07   3.751e-07    -6.431    -6.426     0.005     13.05
   BaSO4           1.060e-07   1.072e-07    -6.975    -6.970     0.005     (0)  
   HSO4-           3.403e-11   2.809e-11   -10.468   -10.551    -0.083     (0)  
   FeSO4           1.562e-11   1.579e-11   -10.806   -10.802     0.005     (0)  
   CaHSO4+         7.258e-16   5.992e-16   -15.139   -15.222    -0.083     (0)  
   FeHSO4+         2.496e-20   2.060e-20   -19.603   -19.686    -0.083     (0)  
   FeSO4+          2.520e-28   2.081e-28   -27.599   -27.682    -0.083     (0)  
   Fe(SO4)2-       7.479e-30   6.174e-30   -29.126   -29.209    -0.083     (0)  
   FeHSO4+2        2.336e-37   1.085e-37   -36.632   -36.965    -0.333     (0)  

------------------------------Saturation indices-------------------------------

	Phase               SI   log IAP   log K(303 K, 300 atm)

	Anhydrite        -4.58     -8.63   -4.05  CaSO4
	Aragonite        -0.13     -8.22   -8.09  CaCO3
	Barite            0.00     -9.67   -9.67  BaSO4
	Calcite          -0.00     -8.22   -8.21  CaCO3
	CH4(g)          -10.92    -13.51   -2.59  CH4
	CO2(g)           -4.10     -5.52   -1.42  CO2
	Fe(OH)3(a)       -4.48      0.24    4.72  Fe(OH)3
	FeS(ppt)         -8.49    -12.01   -3.52  FeS
	Goethite          1.49      0.24   -1.25  FeOOH
	Gypsum           -4.24     -8.63   -4.39  CaSO4:2H2O
	H2(g)            -8.04    -11.15   -3.11  H2
	H2O(g)           -1.28     -0.00    1.28  H2O
	H2S(g)          -13.52    -21.22   -7.70  H2S
	Halite           -5.76     -4.12    1.64  NaCl
	Hematite          4.92      0.48   -4.43  Fe2O3
	Mackinawite      -7.76    -12.01   -4.26  FeS
	Melanterite     -10.31    -13.09   -2.78  FeSO4:7H2O
	O2(g)           -65.59    -68.70   -3.11  O2
	Pyrite           -7.69    -25.36  -17.67  FeS2
	Siderite         -2.04    -12.68  -10.64  FeCO3
	Sulfur          -11.61     -6.57    5.05  S
	Witherite        -1.01     -9.26   -8.25  BaCO3


------------------
End of simulation.
------------------

-------------------------------------
Reading input data for simulation 19.
-------------------------------------

	DELETE
		-solution  -1--2	 	
		-equilibrium_phases	-1
			-2
		-exchange	-2--1
		-surface	-1
			-2
		-solid_solution
			-2
			-1
		-gas_phase	
			-2--1
		-kinetics	
				-1--2 -5
		-mix 		-5--1			
		-reaction	-5--1
		-temperature	-5--1
		-pressure	-5--1
	END
------------------
End of simulation.
------------------

-------------------------------------
Reading input data for simulation 20.
-------------------------------------

	DUMP
		-all
	END
------------------
End of simulation.
------------------

-------------------------------------
Reading input data for simulation 21.
-------------------------------------

	SOLUTION_MODIFY       1 New soln description
	  -totals
	    Cl   0.0020000000000003
	    H(0)   1.4155655514601e-025
	    Na   0.0020000000000003
	EQUILIBRIUM_PHASES_MODIFY       1 New pp description
	  -component               Barite
	    -moles                 20
	    -dissolve_only         1
	  -component               Calcite
	    -moles                 20
	    -dissolve_only         1
	EXCHANGE_MODIFY       1 New ex description
	  -pitzer_exchange_gammas 1
	  -component              X
	    -totals
	      Na   3.0000000058717
	      X   3.0000000058717
	  -component               Y
	    -la                    2.0000000302372
	    -charge_balance        0
	    -phase_proportion              0
	    -formula_z                     0
	    -totals
	      Na   2.0000000058717
	      X   2.0000000058717
	SURFACE_MODIFY      1 New surface def
	  -type 2
	  -dl_type 0
	  -sites_units 0
	  -only_counter_ions 0
	  -thickness 1e-008
	  -debye_lengths 0
	  -DDL_viscosity 1
	  -DDL_limit 0.8
	  -transport 0
	  -component	Hfo_s
	      -formula_z             0
	      -moles                 0
	      -la                    -0.11486188676541
	      -charge_balance        3.7853465372651e-005
	      -phase_proportion      0
	      -Dw                    0
	      -totals
	        H   0.02003785346547
	        Hfo_s   0.020000000000097
	        O   0.020000000000097
	  -charge_component 	Hfo
	      -specific_area         700
	      -grams                 1
	      -charge_balance        5.7853465372651e-005
	      -mass_water            0
	      -la_psi                0.55146269389617
	      -capacitance0          3
	      -capacitance1          5
	      -diffuse_layer_totals 
	SOLID_SOLUTIONS_MODIFY       1 New ss def
	  -solid_solution            Calcite
	      -a0                    0
	      -a1                    0
	      -ag0                   0
	      -ag1                   0
	      -miscibility           0
	      -xb1                   -6.2774385622042e+066
	      -xb2                   -6.2774385622042e+066
	      -component	calcite      
	        -moles   	0.2
	      -component	rhodochrosite 
	        -moles          0.2  
	  -solid_solution	Barite
	      -a0                    0
	      -a1                    0
	      -ag0                   0
	      -ag1                   0
	      -miscibility           0
	      -xb1                   -6.2774385622042e+066
	      -xb2                   -6.2774385622042e+066
	      -component 	Barite
	        -moles          0.2
	      -component	Gypsum
	        -moles          0.2      
	GAS_PHASE_MODIFY      1 New gas_phase def
	  -type               0
	  -total_p            1
	  -volume             1
	  -component 	CO2(g)
	  	-moles		2.4305508698401e-005
	  -component	N2(g)	
	       -moles		1e-5
	KINETICS_MODIFY       1 New kinetics def
	  -bad_step_max      200
	  -use_cvode         1
	  -cvode_steps       200
	  -cvode_order       5
	  -component           Calcite
	    -tol                   1e-009
	    -m                     0.9999999999991
	    -m0                    1
	    -moles                 8.9805940461929e-010
	    -namecoef
	      CaCO3   1
	      MgCO3   2
	    -d_params
	      1 1 1 1 
	  -totals         
	    C   8.9801193858101e-013
	    Ca   8.9801193858101e-013
	    O   2.694035815743e-012
	DUMP
		-solution 1
		-equilibrium 1
		-exchange 1
		-surface 1
		-solid_solution 1
		-gas_phase 1
		-kinetics  1
	END
------------------
End of simulation.
------------------

-------------------------------------
Reading input data for simulation 22.
-------------------------------------

-----------
End of run.
-----------

