WARNING: Database file from DATABASE keyword is used; command line argument ignored.
   Input file: ppdump
  Output file: ppdump.out
Database file: ../database/phreeqc.dat

------------------
Reading data base.
------------------

	SOLUTION_MASTER_SPECIES
	SOLUTION_SPECIES
	PHASES
	EXCHANGE_MASTER_SPECIES
	EXCHANGE_SPECIES
	SURFACE_MASTER_SPECIES
	SURFACE_SPECIES
	RATES
	END
------------------------------------
Reading input data for simulation 1.
------------------------------------

	DATABASE ../database/phreeqc.dat
	SELECTED_OUTPUT 101
	    file                 ppdump_101.sel
	USER_PUNCH 101
	    headings Mu SC
	    start
	10 PUNCH STR_F$(MU, 20, 12)
	20 PUNCH STR_F$(SC, 20, 10)
	    end
	SOLUTION 1-3
		Na	1
		Cl	1
	END
-------------------------------------------
Beginning of initial solution calculations.
-------------------------------------------

Initial solution 1.	

-----------------------------Solution composition------------------------------

	Elements           Molality       Moles

	Cl                1.000e-03   1.000e-03
	Na                1.000e-03   1.000e-03

----------------------------Description of solution----------------------------

                                       pH  =   7.000    
                                       pe  =   4.000    
       Specific Conductance (µS/cm, 25°C)  = 123
                          Density (g/cm³)  =   0.99708
                               Volume (L)  =   1.00298
                        Activity of water  =   1.000
                           Ionic strength  =   1.000e-03
                       Mass of water (kg)  =   1.000e+00
                 Total alkalinity (eq/kg)  =   1.451e-09
                    Total carbon (mol/kg)  =   0.000e+00
                       Total CO2 (mol/kg)  =   0.000e+00
                         Temperature (°C)  =  25.00
                  Electrical balance (eq)  =  -1.451e-09
 Percent error, 100*(Cat-|An|)/(Cat+|An|)  =  -0.00
                               Iterations  =   3
                                  Total H  = 1.110124e+02
                                  Total O  = 5.550622e+01

----------------------------Distribution of species----------------------------

                                               Log       Log       Log    mole V
   Species          Molality    Activity  Molality  Activity     Gamma   cm³/mol

   OH-             1.049e-07   1.012e-07    -6.979    -6.995    -0.016     -4.11
   H+              1.035e-07   1.000e-07    -6.985    -7.000    -0.015      0.00
   H2O             5.551e+01   1.000e+00     1.744    -0.000     0.000     18.07
Cl            1.000e-03
   Cl-             1.000e-03   9.649e-04    -3.000    -3.016    -0.016     18.07
H(0)          1.416e-25
   H2              7.078e-26   7.079e-26   -25.150   -25.150     0.000     28.61
Na            1.000e-03
   Na+             1.000e-03   9.652e-04    -3.000    -3.015    -0.015     -1.48
   NaOH            9.767e-21   9.769e-21   -20.010   -20.010     0.000     (0)  
O(0)          0.000e+00
   O2              0.000e+00   0.000e+00   -42.080   -42.080     0.000     30.40

------------------------------Saturation indices-------------------------------

  Phase               SI** log IAP   log K(298 K,   1 atm)

  H2(g)           -22.05    -25.15   -3.10  H2
  H2O(g)           -1.50     -0.00    1.50  H2O
  Halite           -7.60     -6.03    1.57  NaCl
  O2(g)           -39.19    -42.08   -2.89  O2

**For a gas, SI = log10(fugacity). Fugacity = pressure * phi / 1 atm.
  For ideal gases, phi = 1.

------------------
End of simulation.
------------------

------------------------------------
Reading input data for simulation 2.
------------------------------------

	EQUILIBRIUM_PHASES 1-3
		Barite	0	10
	END
------------------
End of simulation.
------------------

------------------------------------
Reading input data for simulation 3.
------------------------------------

	EXCHANGE 1-3
		X	1
		equilibrate	solution 1
	END
-------------------------------------------------------
Beginning of initial exchange-composition calculations.
-------------------------------------------------------

Exchange 1.	

X                1.000e+00 mol

	                               Equiv-    Equivalent      Log 
	Species             Moles      alents      Fraction     Gamma

	NaX               1.000e+00   1.000e+00   1.000e+00    -0.015

------------------
End of simulation.
------------------

------------------------------------
Reading input data for simulation 4.
------------------------------------

	SURFACE 1-3
	    equilibrate with solution 1
	    Hfo_s   0.01   600    1
	END
------------------------------------------------------
Beginning of initial surface-composition calculations.
------------------------------------------------------

Surface 1.	

Diffuse Double Layer Surface-Complexation Model

Hfo           
	  3.783e-05  Surface charge, eq
	  6.083e-03  sigma, C/m²
	  6.524e-02  psi, V
	 -2.540e+00  -F*psi/RT
	  7.890e-02  exp(-F*psi/RT)
	  6.000e+02  specific area, m²/g
	  6.000e+02  m² for   1.000e+00 g


Hfo_s         
	  1.000e-02  moles
	                                   Mole                     Log
	Species               Moles    Fraction    Molality    Molality

	Hfo_sOH           7.676e-03       0.768   7.676e-03      -2.115
	Hfo_sOH2+         1.181e-03       0.118   1.181e-03      -2.928
	Hfo_sO-           1.143e-03       0.114   1.143e-03      -2.942

------------------
End of simulation.
------------------

------------------------------------
Reading input data for simulation 5.
------------------------------------

	GAS_PHASE 1-3
	    fixed_pressure
	    pressure 1
	    volume 1
	    temperature 25
	    CO2(g)    0.00035
	END
------------------
End of simulation.
------------------

------------------------------------
Reading input data for simulation 6.
------------------------------------

	SOLID_SOLUTIONS 1-3
	    Calcite
	        component calcite 0.1
	        component siderite 0.001
	END
------------------
End of simulation.
------------------

------------------------------------
Reading input data for simulation 7.
------------------------------------

	KINETICS 1-3
	Calcite
	    formula  CaCO3  1
	    m        1
	    m0       1
	    parms    1 1 1 1
	    tol      1e-008
	steps       1 in 1 steps # seconds
	step_divide 1
	runge_kutta 3
	bad_step_max 500
	END
------------------
End of simulation.
------------------

------------------------------------
Reading input data for simulation 8.
------------------------------------

	DUMP
		-file	ppdump.dmp
		-solution 1	 	
			2
			3
		-equilibrium_phases	1-3
		-exchange		1
			2-3
		-surface
			1-3
		-solid_solution 1
			2 3
		-gas_phase	1
		-gas_phase      2-3
		-kinetics	1
		-kinetics	2
		-kinetics       3
	END
------------------
End of simulation.
------------------

------------------------------------
Reading input data for simulation 9.
------------------------------------

	REACTION 1-3
		NaCl  1
		0.001
	END	
------------------
End of simulation.
------------------

-------------------------------------
Reading input data for simulation 10.
-------------------------------------

	MIX 1
		1 0.5
	MIX 2   
		2 0.5
		3 0.5
	MIX 3
		3 0.5
		2 0.5
	USE mix none
	END
------------------
End of simulation.
------------------

-------------------------------------
Reading input data for simulation 11.
-------------------------------------

	REACTION_TEMPERATURE 1-3
		30
	END
------------------
End of simulation.
------------------

-------------------------------------
Reading input data for simulation 12.
-------------------------------------

	REACTION_PRESSURE 1-3
		100 200 300
	END
------------------
End of simulation.
------------------

-------------------------------------
Reading input data for simulation 13.
-------------------------------------

	DELETE 
		-mix 2
	END
------------------
End of simulation.
------------------

-------------------------------------
Reading input data for simulation 14.
-------------------------------------

	RUN_CELLS 
		-cells 2-3
		-time_step   10000
		-start_time  100
	END
--------------------------
Beginning of run as cells.
--------------------------

-----------------------------------------
Beginning of batch-reaction calculations.
-----------------------------------------

Reaction step 1.

Using solution 2.	
Using exchange 2.	Exchange assemblage after simulation 3.
Using surface 2.	
Using pure phase assemblage 2.	
Using solid solution assemblage 2.	
Using gas phase 2.	
Using temperature 2.	
Using pressure 2.	
Using reaction 2.	
Using kinetics 2.	

Reaction 2.	

	  1.000e-03 moles of the following reaction have been added:

	                 Relative
	Reactant            moles

	NaCl                 1.00000

	                 Relative
	Element             moles
	Cl                   1.00000
	Na                   1.00000

Kinetics 2.	

	Time step: 3333.33 seconds

	Rate name       Delta Moles Total Moles   Reactant        Coefficient

	Calcite          -2.860e-09   1.000e+00   CaCO3                     1

----------------Fixed-pressure gas phase 2 dissolved completely----------------

-------------------------------Phase assemblage--------------------------------

                                                      Moles in assemblage
Phase               SI  log IAP  log K(T, P)   Initial       Final       Delta

Barite            0.00    -9.71     -9.71    1.000e+01   9.997e+00  -2.538e-03

--------------------------------Solid solutions--------------------------------


Solid solution                Component        Moles  Delta moles   Mole fract

Calcite                                     8.74e-02
                                calcite     8.67e-02    -1.33e-02     9.91e-01
                               siderite     7.60e-04    -2.40e-04     8.69e-03

------------------------------Surface composition------------------------------

Diffuse Double Layer Surface-Complexation Model

Hfo           
	 -8.302e-05  Surface charge, eq
	 -1.335e-02  sigma, C/m²
	 -3.036e-02  psi, V
	  1.162e+00  -F*psi/RT
	  3.197e+00  exp(-F*psi/RT)
	  6.000e+02  specific area, m²/g
	  6.000e+02  m² for   1.000e+00 g


Hfo_s         
	  1.000e-02  moles
	                                   Mole                     Log
	Species               Moles    Fraction    Molality    Molality

	Hfo_sO-           5.593e-03       0.559   5.593e-03      -2.252
	Hfo_sOHCa+2       1.911e-03       0.191   1.911e-03      -2.719
	Hfo_sOH           1.528e-03       0.153   1.528e-03      -2.816
	Hfo_sOHBa+2       7.195e-04       0.072   7.195e-04      -3.143
	Hfo_sOFe+         2.401e-04       0.024   2.401e-04      -3.620
	Hfo_sOH2+         9.558e-06       0.001   9.558e-06      -5.020

-----------------------------Exchange composition------------------------------

X                1.000e+00 mol

	                               Equiv-    Equivalent      Log 
	Species             Moles      alents      Fraction     Gamma

	NaX               9.736e-01   9.736e-01   9.736e-01    -0.073
	CaX2              1.140e-02   2.280e-02   2.280e-02    -0.285
	BaX2              1.818e-03   3.636e-03   3.636e-03    -0.300
	FeX2              1.564e-07   3.129e-07   3.129e-07    -0.278

-----------------------------Solution composition------------------------------

	Elements           Molality       Moles

	Ba                6.883e-07   6.883e-07
	C                 1.357e-02   1.357e-02
	Ca                9.889e-06   9.889e-06
	Cl                2.000e-03   2.000e-03
	Fe                3.508e-09   3.508e-09
	Na                2.843e-02   2.843e-02
	S                 2.538e-03   2.538e-03

----------------------------Description of solution----------------------------

                                       pH  =   9.998      Charge balance
                                       pe  =  -6.057      Adjusted to redox equilibrium
       Specific Conductance (µS/cm, 30°C)  = 2841
                          Density (g/cm³)  =   1.00162
                               Volume (L)  =   1.00017
                        Activity of water  =   0.999
                           Ionic strength  =   3.437e-02
                       Mass of water (kg)  =   1.000e+00
                 Total alkalinity (eq/kg)  =   2.126e-02
                       Total CO2 (mol/kg)  =   1.357e-02
                         Temperature (°C)  =  30.00
                           Pressure (atm)  = 100.00
                  Electrical balance (eq)  =   1.208e-04
 Percent error, 100*(Cat-|An|)/(Cat+|An|)  =   0.23
                               Iterations  =  22
                                  Total H  = 1.110183e+02
                                  Total O  = 5.555708e+01

----------------------------Distribution of species----------------------------

                                               Log       Log       Log    mole V
   Species          Molality    Activity  Molality  Activity     Gamma   cm³/mol

   OH-             1.877e-04   1.570e-04    -3.727    -3.804    -0.078     -3.53
   H+              1.172e-10   1.018e-10    -9.931    -9.992    -0.061      0.00
   H2O             5.551e+01   9.993e-01     1.744    -0.000     0.000     18.02
Ba            6.846e-07
   Ba+2            3.183e-07   1.602e-07    -6.497    -6.795    -0.298    -11.23
   BaCO3           2.569e-07   2.589e-07    -6.590    -6.587     0.003    -10.04
   BaSO4           9.779e-08   9.855e-08    -7.010    -7.006     0.003     (0)  
   BaHCO3+         1.146e-08   9.656e-09    -7.941    -8.015    -0.074     (0)  
   BaOH+           6.465e-11   5.474e-11   -10.189   -10.262    -0.072     (0)  
C(-4)         1.596e-14
   CH4             1.596e-14   1.608e-14   -13.797   -13.794     0.003     35.98
C(4)          1.336e-02
   HCO3-           5.980e-03   5.078e-03    -2.223    -2.294    -0.071     25.32
   CO3-2           5.543e-03   2.883e-03    -2.256    -2.540    -0.284     -3.51
   NaCO3-          1.761e-03   1.484e-03    -2.754    -2.828    -0.074      0.61
   NaHCO3          6.638e-05   6.690e-05    -4.178    -4.175     0.003      1.80
   CaCO3           6.971e-06   7.026e-06    -5.157    -5.153     0.003    -13.89
   CO2             9.706e-07   9.784e-07    -6.013    -6.010     0.003     34.62
   BaCO3           2.610e-07   2.631e-07    -6.583    -6.580     0.003    -10.04
   CaHCO3+         1.065e-07   9.073e-08    -6.973    -7.042    -0.069     10.19
   BaHCO3+         1.218e-08   1.026e-08    -7.914    -7.989    -0.075     (0)  
   FeCO3           3.074e-09   3.099e-09    -8.512    -8.509     0.003     (0)  
   FeHCO3+         2.989e-11   2.516e-11   -10.524   -10.599    -0.075     (0)  
   (CO2)2          2.046e-14   2.063e-14   -13.689   -13.686     0.003     69.23
Ca            9.889e-06
   CaCO3           6.971e-06   7.026e-06    -5.157    -5.153     0.003    -13.89
   Ca+2            2.529e-06   1.312e-06    -5.597    -5.882    -0.285    -16.96
   CaSO4           2.797e-07   2.820e-07    -6.553    -6.550     0.003      7.95
   CaHCO3+         1.065e-07   9.073e-08    -6.973    -7.042    -0.069     10.19
   CaOH+           2.574e-09   2.167e-09    -8.589    -8.664    -0.075     (0)  
   CaHSO4+         2.474e-16   2.083e-16   -15.607   -15.681    -0.075     (0)  
Cl            2.000e-03
   Cl-             2.000e-03   1.676e-03    -2.699    -2.776    -0.077     18.38
   FeCl+           1.230e-13   1.037e-13   -12.910   -12.984    -0.074     (0)  
   FeCl+2          5.593e-31   2.874e-31   -30.252   -30.542    -0.289     (0)  
   FeCl2+          2.340e-33   1.981e-33   -32.631   -32.703    -0.072     (0)  
   FeCl3           3.545e-37   3.573e-37   -36.450   -36.447     0.003     (0)  
Fe(2)         3.218e-09
   FeCO3           2.817e-09   2.839e-09    -8.550    -8.547     0.003     (0)  
   FeOH+           2.367e-10   2.004e-10    -9.626    -9.698    -0.072     (0)  
   Fe+2            8.541e-11   4.520e-11   -10.068   -10.345    -0.276    -20.65
   FeHCO3+         2.775e-11   2.339e-11   -10.557   -10.631    -0.074     (0)  
   Fe(OH)2         2.737e-11   2.758e-11   -10.563   -10.559     0.003     (0)  
   Fe(OH)3-        1.339e-11   1.134e-11   -10.873   -10.945    -0.072     (0)  
   FeSO4           9.752e-12   9.828e-12   -11.011   -11.008     0.003     14.09
   FeCl+           1.230e-13   1.037e-13   -12.910   -12.984    -0.074     (0)  
   FeHSO4+         8.436e-21   7.108e-21   -20.074   -20.148    -0.074     (0)  
   Fe(HS)2         3.271e-25   3.296e-25   -24.485   -24.482     0.003     (0)  
   Fe(HS)3-        1.270e-34   1.070e-34   -33.896   -33.971    -0.074     (0)  
Fe(3)         4.296e-11
   Fe(OH)4-        4.008e-11   3.404e-11   -10.397   -10.468    -0.071     (0)  
   Fe(OH)3         2.883e-12   2.905e-12   -11.540   -11.537     0.003     (0)  
   Fe(OH)2+        2.033e-15   1.726e-15   -14.692   -14.763    -0.071     (0)  
   FeOH+2          7.988e-22   4.104e-22   -21.098   -21.387    -0.289     (0)  
   FeSO4+          8.365e-29   7.082e-29   -28.078   -28.150    -0.072     (0)  
   Fe+3            1.597e-29   4.514e-30   -28.797   -29.345    -0.549     (0)  
   Fe(SO4)2-       2.405e-30   2.027e-30   -29.619   -29.693    -0.074     (0)  
   FeCl+2          5.593e-31   2.874e-31   -30.252   -30.542    -0.289     (0)  
   FeCl2+          2.340e-33   1.981e-33   -32.631   -32.703    -0.072     (0)  
   FeCl3           3.545e-37   3.573e-37   -36.450   -36.447     0.003     (0)  
   FeHSO4+2        3.840e-38   1.936e-38   -37.416   -37.713    -0.297     (0)  
   Fe2(OH)2+4      0.000e+00   0.000e+00   -40.242   -41.432    -1.190     (0)  
   Fe3(OH)4+5      0.000e+00   0.000e+00   -52.213   -54.072    -1.859     (0)  
H(0)          1.647e-11
   H2              8.234e-12   8.298e-12   -11.084   -11.081     0.003     28.55
Na            2.800e-02
   Na+             2.601e-02   2.200e-02    -1.585    -1.658    -0.073     -0.71
   NaCO3-          1.761e-03   1.484e-03    -2.754    -2.828    -0.074      0.61
   NaSO4-          1.619e-04   1.375e-04    -3.791    -3.862    -0.071     14.28
   NaHCO3          6.638e-05   6.690e-05    -4.178    -4.175     0.003      1.80
   NaOH            3.368e-16   3.395e-16   -15.473   -15.469     0.003     (0)  
O(0)          0.000e+00
   O2              0.000e+00   0.000e+00   -68.724   -68.721     0.003     30.61
S(-2)         3.291e-12
   HS-             3.279e-12   2.742e-12   -11.484   -11.562    -0.078     20.98
   S-2             9.636e-15   4.951e-15   -14.016   -14.305    -0.289     (0)  
   H2S             1.970e-15   1.985e-15   -14.706   -14.702     0.003     37.01
   Fe(HS)2         3.271e-25   3.296e-25   -24.485   -24.482     0.003     (0)  
   Fe(HS)3-        1.270e-34   1.070e-34   -33.896   -33.971    -0.074     (0)  
S(6)          2.520e-03
   SO4-2           2.358e-03   1.208e-03    -2.627    -2.918    -0.291     15.26
   NaSO4-          1.619e-04   1.375e-04    -3.791    -3.862    -0.071     14.28
   CaSO4           2.842e-07   2.865e-07    -6.546    -6.543     0.003      7.95
   BaSO4           9.779e-08   9.855e-08    -7.010    -7.006     0.003     (0)  
   HSO4-           1.434e-11   1.209e-11   -10.843   -10.918    -0.074     40.49
   FeSO4           9.752e-12   9.828e-12   -11.011   -11.008     0.003     14.09
   CaHSO4+         2.530e-16   2.132e-16   -15.597   -15.671    -0.074     (0)  
   FeHSO4+         8.436e-21   7.108e-21   -20.074   -20.148    -0.074     (0)  
   FeSO4+          8.365e-29   7.082e-29   -28.078   -28.150    -0.072     (0)  
   Fe(SO4)2-       2.405e-30   2.027e-30   -29.619   -29.693    -0.074     (0)  
   FeHSO4+2        3.840e-38   1.936e-38   -37.416   -37.713    -0.297     (0)  

------------------------------Saturation indices-------------------------------

  Phase               SI** log IAP   log K(303 K, 100 atm)

  Anhydrite        -4.55     -8.80   -4.25  CaSO4
  Aragonite        -0.14     -8.41   -8.28  CaCO3
  Barite            0.00     -9.71   -9.71  BaSO4
  Calcite          -0.00     -8.41   -8.41  CaCO3
  CH4(g)          -10.98    -13.88   -2.91  CH4
  CO2(g)           -4.43     -6.01   -1.58  CO2
  Fe(OH)3(a)       -4.12      0.68    4.80  Fe(OH)3
  FeS(ppt)         -8.10    -12.01   -3.92  FeS
  Goethite          1.91      0.68   -1.24  FeOOH
  Gypsum           -4.28     -8.80   -4.52  CaSO4:2H2O
  H2(g)            -7.94    -11.10   -3.16  H2
  H2O(g)           -1.35     -0.00    1.35  H2O
  H2S(g)          -13.63    -21.65   -8.02  H2S
  Halite           -6.02     -4.43    1.59  NaCl
  Hematite          5.83      1.36   -4.47  Fe2O3
  Mackinawite      -7.36    -12.01   -4.65  FeS
  Melanterite     -10.92    -13.28   -2.36  FeSO4:7H2O
  O2(g)           -65.70    -68.68   -2.98  O2
  Pyrite           -7.40    -25.78  -18.38  FeS2
  Siderite         -2.06    -12.89  -10.83  FeCO3
  Sulfur          -11.62     -6.92    4.70  S
  Witherite        -0.88     -9.33   -8.45  BaCO3

**For a gas, SI = log10(fugacity). Fugacity = pressure * phi / 1 atm.
  For ideal gases, phi = 1.

Reaction step 2.

Using solution 2.	
Using exchange 2.	Exchange assemblage after simulation 3.
Using surface 2.	
Using pure phase assemblage 2.	
Using solid solution assemblage 2.	
Using gas phase 2.	
Using temperature 2.	
Using pressure 2.	
Using reaction 2.	
Using kinetics 2.	

Reaction 2.	

	  1.000e-03 moles of the following reaction have been added:

	                 Relative
	Reactant            moles

	NaCl                 1.00000

	                 Relative
	Element             moles
	Cl                   1.00000
	Na                   1.00000

Kinetics 2.	

	Time step: 6666.67 seconds

	Rate name       Delta Moles Total Moles   Reactant        Coefficient

	Calcite          -5.744e-09   1.000e+00   CaCO3                     1

----------------Fixed-pressure gas phase 2 dissolved completely----------------

-------------------------------Phase assemblage--------------------------------

                                                      Moles in assemblage
Phase               SI  log IAP  log K(T, P)   Initial       Final       Delta

Barite            0.00    -9.63     -9.63    1.000e+01   9.997e+00  -2.666e-03

--------------------------------Solid solutions--------------------------------


Solid solution                Component        Moles  Delta moles   Mole fract

Calcite                                     8.68e-02
                                calcite     8.60e-02    -1.40e-02     9.91e-01
                               siderite     7.57e-04    -2.43e-04     8.73e-03

------------------------------Surface composition------------------------------

Diffuse Double Layer Surface-Complexation Model

Hfo           
	 -8.023e-05  Surface charge, eq
	 -1.290e-02  sigma, C/m²
	 -2.865e-02  psi, V
	  1.097e+00  -F*psi/RT
	  2.994e+00  exp(-F*psi/RT)
	  6.000e+02  specific area, m²/g
	  6.000e+02  m² for   1.000e+00 g


Hfo_s         
	  1.000e-02  moles
	                                   Mole                     Log
	Species               Moles    Fraction    Molality    Molality

	Hfo_sO-           5.610e-03       0.561   5.610e-03      -2.251
	Hfo_sOHCa+2       1.914e-03       0.191   1.914e-03      -2.718
	Hfo_sOH           1.499e-03       0.150   1.499e-03      -2.824
	Hfo_sOHBa+2       7.253e-04       0.073   7.253e-04      -3.139
	Hfo_sOFe+         2.428e-04       0.024   2.428e-04      -3.615
	Hfo_sOH2+         9.174e-06       0.001   9.174e-06      -5.037

-----------------------------Exchange composition------------------------------

X                1.000e+00 mol

	                               Equiv-    Equivalent      Log 
	Species             Moles      alents      Fraction     Gamma

	NaX               9.720e-01   9.720e-01   9.720e-01    -0.074
	CaX2              1.207e-02   2.414e-02   2.414e-02    -0.290
	BaX2              1.940e-03   3.880e-03   3.880e-03    -0.305
	FeX2              1.635e-07   3.271e-07   3.271e-07    -0.282

-----------------------------Solution composition------------------------------

	Elements           Molality       Moles

	Ba                8.337e-07   8.337e-07
	C                 1.425e-02   1.425e-02
	Ca                1.193e-05   1.193e-05
	Cl                2.000e-03   2.000e-03
	Fe                4.258e-09   4.258e-09
	Na                3.002e-02   3.002e-02
	S                 2.666e-03   2.666e-03

----------------------------Description of solution----------------------------

                                       pH  =   9.979      Charge balance
                                       pe  =  -6.051      Adjusted to redox equilibrium
       Specific Conductance (µS/cm, 30°C)  = 2979
                          Density (g/cm³)  =   1.00607
                               Volume (L)  =   0.99583
                        Activity of water  =   0.999
                           Ionic strength  =   3.631e-02
                       Mass of water (kg)  =   1.000e+00
                 Total alkalinity (eq/kg)  =   2.260e-02
                       Total CO2 (mol/kg)  =   1.425e-02
                         Temperature (°C)  =  30.00
                           Pressure (atm)  = 200.00
                  Electrical balance (eq)  =   1.180e-04
 Percent error, 100*(Cat-|An|)/(Cat+|An|)  =   0.21
                               Iterations  =  23
                                  Total H  = 1.110183e+02
                                  Total O  = 5.555963e+01

----------------------------Distribution of species----------------------------

                                               Log       Log       Log    mole V
   Species          Molality    Activity  Molality  Activity     Gamma   cm³/mol

   OH-             1.992e-04   1.658e-04    -3.701    -3.780    -0.080     -3.30
   H+              1.209e-10   1.048e-10    -9.917    -9.979    -0.062      0.00
   H2O             5.551e+01   9.992e-01     1.744    -0.000     0.000     17.94
Ba            8.337e-07
   Ba+2            3.777e-07   1.872e-07    -6.423    -6.728    -0.305    -10.46
   BaCO3           3.233e-07   3.260e-07    -6.490    -6.487     0.004     -9.46
   BaSO4           1.167e-07   1.176e-07    -6.933    -6.929     0.004     (0)  
   BaHCO3+         1.598e-08   1.341e-08    -7.796    -7.872    -0.076     (0)  
   BaOH+           7.166e-11   6.044e-11   -10.145   -10.219    -0.074     (0)  
C(-4)         1.309e-14
   CH4             1.309e-14   1.320e-14   -13.883   -13.879     0.004     36.09
C(4)          1.425e-02
   CO3-2           6.124e-03   3.140e-03    -2.213    -2.503    -0.290     -2.66
   HCO3-           6.030e-03   5.102e-03    -2.220    -2.292    -0.073     25.43
   NaCO3-          2.012e-03   1.689e-03    -2.696    -2.772    -0.076      1.51
   NaHCO3          7.792e-05   7.857e-05    -4.108    -4.105     0.004      1.80
   CaCO3           8.502e-06   8.573e-06    -5.070    -5.067     0.004    -13.24
   CO2             9.102e-07   9.178e-07    -6.041    -6.037     0.004     34.56
   BaCO3           3.233e-07   3.260e-07    -6.490    -6.487     0.004     -9.46
   CaHCO3+         1.239e-07   1.053e-07    -6.907    -6.978    -0.071     10.41
   BaHCO3+         1.598e-08   1.341e-08    -7.796    -7.872    -0.076     (0)  
   FeCO3           3.776e-09   3.808e-09    -8.423    -8.419     0.004     (0)  
   FeHCO3+         3.847e-11   3.229e-11   -10.415   -10.491    -0.076     (0)  
   (CO2)2          1.800e-14   1.815e-14   -13.745   -13.741     0.004     69.11
Ca            1.193e-05
   CaCO3           8.502e-06   8.573e-06    -5.070    -5.067     0.004    -13.24
   Ca+2            2.973e-06   1.526e-06    -5.527    -5.816    -0.290    -16.29
   CaSO4           3.243e-07   3.270e-07    -6.489    -6.485     0.004      8.21
   CaHCO3+         1.239e-07   1.053e-07    -6.907    -6.978    -0.071     10.41
   CaOH+           2.875e-09   2.414e-09    -8.541    -8.617    -0.076     (0)  
   CaHSO4+         3.123e-16   2.621e-16   -15.505   -15.581    -0.076     (0)  
Cl            2.000e-03
   Cl-             2.000e-03   1.673e-03    -2.699    -2.776    -0.078     18.43
   FeCl+           1.446e-13   1.217e-13   -12.840   -12.915    -0.075     (0)  
   FeCl+2          6.619e-31   3.377e-31   -30.179   -30.471    -0.292     (0)  
   FeCl2+          2.961e-33   2.503e-33   -32.529   -32.602    -0.073     (0)  
   FeCl3           4.813e-37   4.852e-37   -36.318   -36.314     0.004     (0)  
Fe(2)         3.660e-09
   FeCO3           3.205e-09   3.231e-09    -8.494    -8.491     0.004     (0)  
   FeOH+           2.626e-10   2.219e-10    -9.581    -9.654    -0.073     (0)  
   Fe+2            1.014e-10   5.330e-11    -9.994   -10.273    -0.279    -19.92
   FeHCO3+         3.352e-11   2.820e-11   -10.475   -10.550    -0.075     (0)  
   Fe(OH)2         3.073e-11   3.098e-11   -10.512   -10.509     0.004     (0)  
   Fe(OH)3-        1.528e-11   1.292e-11   -10.816   -10.889    -0.073     (0)  
   FeSO4           1.102e-11   1.111e-11   -10.958   -10.954     0.004     14.09
   FeCl+           1.446e-13   1.217e-13   -12.840   -12.915    -0.075     (0)  
   FeHSO4+         1.071e-20   9.010e-21   -19.970   -20.045    -0.075     (0)  
   Fe(HS)2         6.665e-25   6.719e-25   -24.176   -24.173     0.004     (0)  
   Fe(HS)3-        3.543e-34   2.980e-34   -33.451   -33.526    -0.075     (0)  
Fe(3)         4.974e-11
   Fe(OH)4-        4.645e-11   3.938e-11   -10.333   -10.405    -0.072     (0)  
   Fe(OH)3         3.287e-12   3.314e-12   -11.483   -11.480     0.004     (0)  
   Fe(OH)2+        2.290e-15   1.942e-15   -14.640   -14.712    -0.072     (0)  
   FeOH+2          8.919e-22   4.551e-22   -21.050   -21.342    -0.292     (0)  
   FeSO4+          1.004e-28   8.486e-29   -27.998   -28.071    -0.073     (0)  
   Fe+3            1.764e-29   4.935e-30   -28.754   -29.307    -0.553     (0)  
   Fe(SO4)2-       3.165e-30   2.662e-30   -29.500   -29.575    -0.075     (0)  
   FeCl+2          6.619e-31   3.377e-31   -30.179   -30.471    -0.292     (0)  
   FeCl2+          2.961e-33   2.503e-33   -32.529   -32.602    -0.073     (0)  
   FeCl3           4.813e-37   4.852e-37   -36.318   -36.314     0.004     (0)  
   FeHSO4+2        4.909e-38   2.457e-38   -37.309   -37.610    -0.301     (0)  
   Fe2(OH)2+4      0.000e+00   0.000e+00   -40.140   -41.342    -1.202     (0)  
   Fe3(OH)4+5      0.000e+00   0.000e+00   -52.053   -53.931    -1.878     (0)  
H(0)          1.643e-11
   H2              8.215e-12   8.282e-12   -11.085   -11.082     0.004     28.51
Na            2.910e-02
   Na+             2.697e-02   2.277e-02    -1.569    -1.643    -0.073     -0.42
   NaCO3-          1.885e-03   1.586e-03    -2.725    -2.800    -0.075      1.50
   NaSO4-          1.744e-04   1.479e-04    -3.758    -3.830    -0.072     13.73
   NaHCO3          7.527e-05   7.588e-05    -4.123    -4.120     0.004      1.80
   NaOH            3.533e-16   3.562e-16   -15.452   -15.448     0.004     (0)  
O(0)          0.000e+00
   O2              0.000e+00   0.000e+00   -68.813   -68.809     0.004     30.45
S(-2)         4.141e-12
   HS-             4.126e-12   3.443e-12   -11.384   -11.463    -0.079     21.01
   S-2             1.252e-14   6.386e-15   -13.902   -14.195    -0.292     (0)  
   H2S             2.459e-15   2.480e-15   -14.609   -14.606     0.004     36.84
   Fe(HS)2         6.665e-25   6.719e-25   -24.176   -24.173     0.004     (0)  
   Fe(HS)3-        3.543e-34   2.980e-34   -33.451   -33.526    -0.075     (0)  
S(6)          2.630e-03
   SO4-2           2.455e-03   1.249e-03    -2.610    -2.904    -0.294     14.90
   NaSO4-          1.744e-04   1.479e-04    -3.758    -3.830    -0.072     13.73
   CaSO4           3.349e-07   3.376e-07    -6.475    -6.472     0.004      8.21
   BaSO4           1.209e-07   1.219e-07    -6.918    -6.914     0.004     (0)  
   HSO4-           1.420e-11   1.195e-11   -10.848   -10.923    -0.075     40.28
   FeSO4           1.102e-11   1.111e-11   -10.958   -10.954     0.004     14.09
   CaHSO4+         3.274e-16   2.754e-16   -15.485   -15.560    -0.075     (0)  
   FeHSO4+         1.071e-20   9.010e-21   -19.970   -20.045    -0.075     (0)  
   FeSO4+          1.004e-28   8.486e-29   -27.998   -28.071    -0.073     (0)  
   Fe(SO4)2-       3.165e-30   2.662e-30   -29.500   -29.575    -0.075     (0)  
   FeHSO4+2        4.909e-38   2.457e-38   -37.309   -37.610    -0.301     (0)  

------------------------------Saturation indices-------------------------------

  Phase               SI** log IAP   log K(303 K, 200 atm)

  Anhydrite        -4.55     -8.72   -4.17  CaSO4
  Aragonite        -0.13     -8.32   -8.19  CaCO3
  Barite            0.00     -9.63   -9.63  BaSO4
  Calcite          -0.00     -8.32   -8.32  CaCO3
  CH4(g)          -10.91    -13.88   -2.97  CH4
  CO2(g)           -4.39     -6.04   -1.64  CO2
  Fe(OH)3(a)       -4.02      0.69    4.70  Fe(OH)3
  FeS(ppt)         -8.06    -11.97   -3.92  FeS
  Goethite          1.99      0.69   -1.30  FeOOH
  Gypsum           -4.27     -8.72   -4.45  CaSO4:2H2O
  H2(g)            -7.92    -11.13   -3.21  H2
  H2O(g)           -1.31     -0.00    1.31  H2O
  H2S(g)          -13.58    -21.64   -8.05  H2S
  Halite           -6.01     -4.41    1.61  NaCl
  Hematite          5.94      1.38   -4.57  Fe2O3
  Mackinawite      -7.32    -11.97   -4.65  FeS
  Melanterite     -10.63    -13.20   -2.57  FeSO4:7H2O
  O2(g)           -65.68    -68.72   -3.03  O2
  Pyrite           -7.33    -25.75  -18.42  FeS2
  Siderite         -2.06    -12.80  -10.74  FeCO3
  Sulfur          -11.59     -6.95    4.64  S
  Witherite        -0.88     -9.23   -8.35  BaCO3

**For a gas, SI = log10(fugacity). Fugacity = pressure * phi / 1 atm.
  For ideal gases, phi = 1.

Reaction step 3.

Using solution 2.	
Using exchange 2.	Exchange assemblage after simulation 3.
Using surface 2.	
Using pure phase assemblage 2.	
Using solid solution assemblage 2.	
Using gas phase 2.	
Using temperature 2.	
Using pressure 2.	
Using reaction 2.	
Using kinetics 2.	

Reaction 2.	

	  1.000e-03 moles of the following reaction have been added:

	                 Relative
	Reactant            moles

	NaCl                 1.00000

	                 Relative
	Element             moles
	Cl                   1.00000
	Na                   1.00000

Kinetics 2.	

	Time step: 10000 seconds

	Rate name       Delta Moles Total Moles   Reactant        Coefficient

	Calcite          -8.658e-09   1.000e+00   CaCO3                     1

----------------Fixed-pressure gas phase 2 dissolved completely----------------

-------------------------------Phase assemblage--------------------------------

                                                      Moles in assemblage
Phase               SI  log IAP  log K(T, P)   Initial       Final       Delta

Barite            0.00    -9.55     -9.55    1.000e+01   9.997e+00  -2.803e-03

--------------------------------Solid solutions--------------------------------


Solid solution                Component        Moles  Delta moles   Mole fract

Calcite                                     8.61e-02
                                calcite     8.53e-02    -1.47e-02     9.91e-01
                               siderite     7.55e-04    -2.45e-04     8.77e-03

------------------------------Surface composition------------------------------

Diffuse Double Layer Surface-Complexation Model

Hfo           
	 -7.735e-05  Surface charge, eq
	 -1.244e-02  sigma, C/m²
	 -2.699e-02  psi, V
	  1.033e+00  -F*psi/RT
	  2.810e+00  exp(-F*psi/RT)
	  6.000e+02  specific area, m²/g
	  6.000e+02  m² for   1.000e+00 g


Hfo_s         
	  1.000e-02  moles
	                                   Mole                     Log
	Species               Moles    Fraction    Molality    Molality

	Hfo_sO-           5.626e-03       0.563   5.626e-03      -2.250
	Hfo_sOHCa+2       1.915e-03       0.192   1.915e-03      -2.718
	Hfo_sOH           1.472e-03       0.147   1.472e-03      -2.832
	Hfo_sOHBa+2       7.321e-04       0.073   7.321e-04      -3.135
	Hfo_sOFe+         2.451e-04       0.025   2.451e-04      -3.611
	Hfo_sOH2+         8.828e-06       0.001   8.828e-06      -5.054

-----------------------------Exchange composition------------------------------

X                1.000e+00 mol

	                               Equiv-    Equivalent      Log 
	Species             Moles      alents      Fraction     Gamma

	NaX               9.704e-01   9.704e-01   9.704e-01    -0.075
	CaX2              1.275e-02   2.550e-02   2.550e-02    -0.294
	BaX2              2.069e-03   4.139e-03   4.139e-03    -0.310
	FeX2              1.706e-07   3.411e-07   3.411e-07    -0.286

-----------------------------Solution composition------------------------------

	Elements           Molality       Moles

	Ba                1.007e-06   1.007e-06
	C                 1.494e-02   1.494e-02
	Ca                1.431e-05   1.431e-05
	Cl                2.000e-03   2.000e-03
	Fe                5.122e-09   5.122e-09
	Na                3.164e-02   3.164e-02
	S                 2.803e-03   2.803e-03

----------------------------Description of solution----------------------------

                                       pH  =   9.961      Charge balance
                                       pe  =  -6.045      Adjusted to redox equilibrium
       Specific Conductance (µS/cm, 30°C)  = 3117
                          Density (g/cm³)  =   1.01045
                               Volume (L)  =   0.99161
                        Activity of water  =   0.999
                           Ionic strength  =   3.827e-02
                       Mass of water (kg)  =   1.000e+00
                 Total alkalinity (eq/kg)  =   2.395e-02
                       Total CO2 (mol/kg)  =   1.494e-02
                         Temperature (°C)  =  30.00
                           Pressure (atm)  = 300.00
                  Electrical balance (eq)  =   1.152e-04
 Percent error, 100*(Cat-|An|)/(Cat+|An|)  =   0.20
                               Iterations  =  23
                                  Total H  = 1.110183e+02
                                  Total O  = 5.556223e+01

----------------------------Distribution of species----------------------------

                                               Log       Log       Log    mole V
   Species          Molality    Activity  Molality  Activity     Gamma   cm³/mol

   OH-             2.077e-04   1.724e-04    -3.682    -3.763    -0.081     -3.08
   H+              1.265e-10   1.094e-10    -9.898    -9.961    -0.063      0.00
   H2O             5.551e+01   9.992e-01     1.744    -0.000     0.000     17.86
Ba            9.915e-07
   Ba+2            4.428e-07   2.197e-07    -6.354    -6.658    -0.304     -9.76
   BaCO3           3.812e-07   3.844e-07    -6.419    -6.415     0.004     -8.92
   BaSO4           1.495e-07   1.508e-07    -6.825    -6.822     0.004     (0)  
   BaHCO3+         1.789e-08   1.503e-08    -7.747    -7.823    -0.076     (0)  
   BaOH+           8.512e-11   7.182e-11   -10.070   -10.144    -0.074     (0)  
C(-4)         2.572e-14
   CH4             2.572e-14   2.593e-14   -13.590   -13.586     0.004     36.19
C(4)          1.423e-02
   CO3-2           6.165e-03   3.165e-03    -2.210    -2.500    -0.290     -1.87
   HCO3-           5.959e-03   5.044e-03    -2.225    -2.297    -0.072     25.52
   NaCO3-          2.008e-03   1.686e-03    -2.697    -2.773    -0.076      2.34
   NaHCO3          8.544e-05   8.616e-05    -4.068    -4.065     0.004      1.80
   CaCO3           1.032e-05   1.041e-05    -4.986    -4.983     0.004    -12.64
   CO2             8.812e-07   8.886e-07    -6.055    -6.051     0.004     34.50
   BaCO3           3.812e-07   3.844e-07    -6.419    -6.415     0.004     -8.92
   CaHCO3+         1.496e-07   1.272e-07    -6.825    -6.896    -0.070     10.62
   BaHCO3+         1.789e-08   1.503e-08    -7.747    -7.823    -0.076     (0)  
   FeCO3           3.646e-09   3.677e-09    -8.438    -8.434     0.004     (0)  
   FeHCO3+         4.044e-11   3.396e-11   -10.393   -10.469    -0.076     (0)  
   (CO2)2          1.687e-14   1.702e-14   -13.773   -13.769     0.004     69.00
Ca            1.449e-05
   CaCO3           1.032e-05   1.041e-05    -4.986    -4.983     0.004    -12.64
   Ca+2            3.624e-06   1.863e-06    -5.441    -5.730    -0.289    -15.68
   CaSO4           3.927e-07   3.960e-07    -6.406    -6.402     0.004      8.45
   CaHCO3+         1.496e-07   1.272e-07    -6.825    -6.896    -0.070     10.62
   CaOH+           3.308e-09   2.778e-09    -8.480    -8.556    -0.076     (0)  
   CaHSO4+         4.220e-16   3.544e-16   -15.375   -15.451    -0.076     (0)  
Cl            2.000e-03
   Cl-             2.000e-03   1.670e-03    -2.699    -2.777    -0.078     18.48
   FeCl+           1.698e-13   1.426e-13   -12.770   -12.846    -0.076     (0)  
   FeCl+2          7.827e-31   3.968e-31   -30.106   -30.401    -0.295     (0)  
   FeCl2+          3.748e-33   3.163e-33   -32.426   -32.500    -0.074     (0)  
   FeCl3           6.540e-37   6.595e-37   -36.184   -36.181     0.004     (0)  
Fe(2)         4.162e-09
   FeCO3           3.646e-09   3.677e-09    -8.438    -8.434     0.004     (0)  
   FeOH+           2.908e-10   2.454e-10    -9.536    -9.610    -0.074     (0)  
   Fe+2            1.194e-10   6.242e-11    -9.923   -10.205    -0.282    -19.23
   FeHCO3+         4.044e-11   3.396e-11   -10.393   -10.469    -0.076     (0)  
   Fe(OH)2         3.446e-11   3.475e-11   -10.463   -10.459     0.004     (0)  
   Fe(OH)3-        1.742e-11   1.470e-11   -10.759   -10.833    -0.074     (0)  
   FeSO4           1.242e-11   1.253e-11   -10.906   -10.902     0.004     14.09
   FeCl+           1.698e-13   1.426e-13   -12.770   -12.846    -0.076     (0)  
   FeHSO4+         1.355e-20   1.138e-20   -19.868   -19.944    -0.076     (0)  
   Fe(HS)2         1.316e-24   1.328e-24   -23.881   -23.877     0.004     (0)  
   Fe(HS)3-        9.440e-34   7.927e-34   -33.025   -33.101    -0.076     (0)  
Fe(3)         5.759e-11
   Fe(OH)4-        5.384e-11   4.557e-11   -10.269   -10.341    -0.072     (0)  
   Fe(OH)3         3.749e-12   3.780e-12   -11.426   -11.422     0.004     (0)  
   Fe(OH)2+        2.579e-15   2.183e-15   -14.589   -14.661    -0.072     (0)  
   FeOH+2          9.950e-22   5.044e-22   -21.002   -21.297    -0.295     (0)  
   FeSO4+          1.203e-28   1.015e-28   -27.920   -27.994    -0.074     (0)  
   Fe+3            1.945e-29   5.391e-30   -28.711   -29.268    -0.557     (0)  
   Fe(SO4)2-       4.150e-30   3.485e-30   -29.382   -29.458    -0.076     (0)  
   FeCl+2          7.827e-31   3.968e-31   -30.106   -30.401    -0.295     (0)  
   FeCl2+          3.748e-33   3.163e-33   -32.426   -32.500    -0.074     (0)  
   FeCl3           6.540e-37   6.595e-37   -36.184   -36.181     0.004     (0)  
   FeHSO4+2        6.254e-38   3.110e-38   -37.204   -37.507    -0.303     (0)  
   Fe2(OH)2+4      0.000e+00   0.000e+00   -40.039   -41.253    -1.214     (0)  
   Fe3(OH)4+5      0.000e+00   0.000e+00   -51.895   -53.791    -1.896     (0)  
H(0)          1.634e-11
   H2              8.168e-12   8.237e-12   -11.088   -11.084     0.004     28.47
Na            3.019e-02
   Na+             2.791e-02   2.353e-02    -1.554    -1.628    -0.074     -0.14
   NaCO3-          2.008e-03   1.686e-03    -2.697    -2.773    -0.076      2.34
   NaSO4-          1.884e-04   1.595e-04    -3.725    -3.797    -0.072     13.22
   NaHCO3          8.544e-05   8.616e-05    -4.068    -4.065     0.004      1.80
   NaOH            3.709e-16   3.740e-16   -15.431   -15.427     0.004     (0)  
O(0)          0.000e+00
   O2              0.000e+00   0.000e+00   -68.898   -68.894     0.004     30.31
S(-2)         5.132e-12
   HS-             5.113e-12   4.258e-12   -11.291   -11.371    -0.079     21.04
   S-2             1.603e-14   8.125e-15   -13.795   -14.090    -0.295     (0)  
   H2S             3.027e-15   3.053e-15   -14.519   -14.515     0.004     36.69
   Fe(HS)2         1.316e-24   1.328e-24   -23.881   -23.877     0.004     (0)  
   Fe(HS)3-        9.440e-34   7.927e-34   -33.025   -33.101    -0.076     (0)  
S(6)          2.747e-03
   SO4-2           2.558e-03   1.292e-03    -2.592    -2.889    -0.297     14.57
   NaSO4-          1.884e-04   1.595e-04    -3.725    -3.797    -0.072     13.22
   CaSO4           3.927e-07   3.960e-07    -6.406    -6.402     0.004      8.45
   BaSO4           1.495e-07   1.508e-07    -6.825    -6.822     0.004     (0)  
   HSO4-           1.405e-11   1.180e-11   -10.852   -10.928    -0.076     40.09
   FeSO4           1.242e-11   1.253e-11   -10.906   -10.902     0.004     14.09
   CaHSO4+         4.220e-16   3.544e-16   -15.375   -15.451    -0.076     (0)  
   FeHSO4+         1.355e-20   1.138e-20   -19.868   -19.944    -0.076     (0)  
   FeSO4+          1.203e-28   1.015e-28   -27.920   -27.994    -0.074     (0)  
   Fe(SO4)2-       4.150e-30   3.485e-30   -29.382   -29.458    -0.076     (0)  
   FeHSO4+2        6.254e-38   3.110e-38   -37.204   -37.507    -0.303     (0)  

------------------------------Saturation indices-------------------------------

  Phase               SI** log IAP   log K(303 K, 300 atm)

  Anhydrite        -4.55     -8.64   -4.09  CaSO4
  Aragonite        -0.13     -8.23   -8.10  CaCO3
  Barite            0.00     -9.55   -9.55  BaSO4
  Calcite          -0.00     -8.23   -8.23  CaCO3
  CH4(g)          -10.84    -13.87   -3.03  CH4
  CO2(g)           -4.36     -6.06   -1.70  CO2
  Fe(OH)3(a)       -3.92      0.70    4.61  Fe(OH)3
  FeS(ppt)         -8.01    -11.93   -3.92  FeS
  Goethite          2.06      0.70   -1.36  FeOOH
  Gypsum           -4.26     -8.64   -4.38  CaSO4:2H2O
  H2(g)            -7.89    -11.15   -3.26  H2
  H2O(g)           -1.28     -0.00    1.28  H2O
  H2S(g)          -13.53    -21.62   -8.09  H2S
  Halite           -6.01     -4.39    1.62  NaCl
  Hematite          6.05      1.39   -4.66  Fe2O3
  Mackinawite      -7.28    -11.93   -4.66  FeS
  Melanterite     -10.35    -13.13   -2.78  FeSO4:7H2O
  O2(g)           -65.67    -68.76   -3.08  O2
  Pyrite           -7.26    -25.72  -18.46  FeS2
  Siderite         -2.06    -12.71  -10.66  FeCO3
  Sulfur          -11.56     -6.99    4.58  S
  Witherite        -0.88     -9.14   -8.26  BaCO3

**For a gas, SI = log10(fugacity). Fugacity = pressure * phi / 1 atm.
  For ideal gases, phi = 1.

-----------------------------------------
Beginning of batch-reaction calculations.
-----------------------------------------

Reaction step 1.

Using mix 3.	
Using exchange 3.	Exchange assemblage after simulation 3.
Using surface 3.	
Using pure phase assemblage 3.	
Using solid solution assemblage 3.	
Using gas phase 3.	
Using temperature 3.	
Using pressure 3.	
Using reaction 3.	
Using kinetics 3.	

Mixture 3.	

	  5.000e-01 Solution 2	Solution after simulation 14.                          
	  5.000e-01 Solution 3	                                                       

Reaction 3.	

	  1.000e-03 moles of the following reaction have been added:

	                 Relative
	Reactant            moles

	NaCl                 1.00000

	                 Relative
	Element             moles
	Cl                   1.00000
	Na                   1.00000

Kinetics 3.	

	Time step: 3333.33 seconds

	Rate name       Delta Moles Total Moles   Reactant        Coefficient

	Calcite          -2.910e-09   1.000e+00   CaCO3                     1

----------------Fixed-pressure gas phase 3 dissolved completely----------------

-------------------------------Phase assemblage--------------------------------

                                                      Moles in assemblage
Phase               SI  log IAP  log K(T, P)   Initial       Final       Delta

Barite            0.00    -9.71     -9.71    1.000e+01   9.998e+00  -1.753e-03

--------------------------------Solid solutions--------------------------------


Solid solution                Component        Moles  Delta moles   Mole fract

Calcite                                     9.12e-02
                                calcite     9.04e-02    -9.64e-03     9.91e-01
                               siderite     8.06e-04    -1.94e-04     8.84e-03

------------------------------Surface composition------------------------------

Diffuse Double Layer Surface-Complexation Model

Hfo           
	 -8.475e-05  Surface charge, eq
	 -1.363e-02  sigma, C/m²
	 -2.844e-02  psi, V
	  1.089e+00  -F*psi/RT
	  2.971e+00  exp(-F*psi/RT)
	  6.000e+02  specific area, m²/g
	  6.000e+02  m² for   1.000e+00 g


Hfo_s         
	  1.000e-02  moles
	                                   Mole                     Log
	Species               Moles    Fraction    Molality    Molality

	Hfo_sO-           5.391e-03       0.539   5.391e-03      -2.268
	Hfo_sOHCa+2       1.906e-03       0.191   1.906e-03      -2.720
	Hfo_sOH           1.851e-03       0.185   1.851e-03      -2.733
	Hfo_sOHBa+2       6.430e-04       0.064   6.430e-04      -3.192
	Hfo_sOFe+         1.939e-04       0.019   1.939e-04      -3.712
	Hfo_sOH2+         1.456e-05       0.001   1.456e-05      -4.837

-----------------------------Exchange composition------------------------------

X                1.000e+00 mol

	                               Equiv-    Equivalent      Log 
	Species             Moles      alents      Fraction     Gamma

	NaX               9.823e-01   9.823e-01   9.823e-01    -0.078
	CaX2              7.727e-03   1.545e-02   1.545e-02    -0.305
	BaX2              1.110e-03   2.220e-03   2.220e-03    -0.322
	FeX2              1.077e-07   2.155e-07   2.155e-07    -0.297

-----------------------------Solution composition------------------------------

	Elements           Molality       Moles

	Ba                6.310e-07   6.310e-07
	C                 1.731e-02   1.731e-02
	Ca                9.943e-06   9.943e-06
	Cl                2.500e-03   2.500e-03
	Fe                3.467e-09   3.467e-09
	Na                3.499e-02   3.499e-02
	S                 3.154e-03   3.154e-03

----------------------------Description of solution----------------------------

                                       pH  =   9.867      Charge balance
                                       pe  =  -5.842      Adjusted to redox equilibrium
       Specific Conductance (µS/cm, 30°C)  = 3400
                          Density (g/cm³)  =   1.00200
                               Volume (L)  =   1.00025
                        Activity of water  =   0.999
                           Ionic strength  =   4.137e-02
                       Mass of water (kg)  =   1.000e+00
                 Total alkalinity (eq/kg)  =   2.603e-02
                       Total CO2 (mol/kg)  =   1.731e-02
                         Temperature (°C)  =  30.00
                           Pressure (atm)  = 100.00
                  Electrical balance (eq)  =   1.803e-04
 Percent error, 100*(Cat-|An|)/(Cat+|An|)  =   0.29
                               Iterations  =  15
                                  Total H  = 1.110209e+02
                                  Total O  = 5.556949e+01

----------------------------Distribution of species----------------------------

                                               Log       Log       Log    mole V
   Species          Molality    Activity  Molality  Activity     Gamma   cm³/mol

   OH-             1.429e-04   1.177e-04    -3.845    -3.929    -0.084     -3.50
   H+              1.577e-10   1.358e-10    -9.802    -9.867    -0.065      0.00
   H2O             5.551e+01   9.991e-01     1.744    -0.000     0.000     18.02
Ba            6.258e-07
   Ba+2            2.859e-07   1.370e-07    -6.544    -6.863    -0.320    -11.19
   BaCO3           2.282e-07   2.303e-07    -6.642    -6.638     0.004    -10.04
   BaSO4           9.764e-08   9.855e-08    -7.010    -7.006     0.004     (0)  
   BaHCO3+         1.402e-08   1.167e-08    -7.853    -7.933    -0.080     (0)  
   BaOH+           4.114e-11   3.442e-11   -10.386   -10.463    -0.077     (0)  
C(-4)         6.856e-15
   CH4             6.856e-15   6.921e-15   -14.164   -14.160     0.004     35.98
C(4)          1.694e-02
   HCO3-           8.551e-03   7.180e-03    -2.068    -2.144    -0.076     25.36
   CO3-2           6.031e-03   2.998e-03    -2.220    -2.523    -0.304     -3.44
   NaCO3-          2.232e-03   1.858e-03    -2.651    -2.731    -0.080      0.66
   NaHCO3          1.128e-04   1.139e-04    -3.948    -3.944     0.004      1.80
   CaCO3           6.960e-06   7.025e-06    -5.157    -5.153     0.004    -13.89
   CO2             1.882e-06   1.900e-06    -5.725    -5.721     0.004     34.62
   BaCO3           2.282e-07   2.303e-07    -6.642    -6.638     0.004    -10.04
   CaHCO3+         1.482e-07   1.251e-07    -6.829    -6.903    -0.074     10.20
   BaHCO3+         1.402e-08   1.167e-08    -7.853    -7.933    -0.080     (0)  
   FeCO3           2.861e-09   2.888e-09    -8.543    -8.539     0.004     (0)  
   FeHCO3+         3.884e-11   3.234e-11   -10.411   -10.490    -0.080     (0)  
   (CO2)2          7.707e-14   7.779e-14   -13.113   -13.109     0.004     69.23
Ca            1.001e-05
   CaCO3           6.960e-06   7.025e-06    -5.157    -5.153     0.004    -13.89
   Ca+2            2.579e-06   1.284e-06    -5.589    -5.891    -0.303    -16.92
   CaSO4           3.190e-07   3.220e-07    -6.496    -6.492     0.004      7.95
   CaHCO3+         1.482e-07   1.251e-07    -6.829    -6.903    -0.074     10.20
   CaOH+           1.855e-09   1.545e-09    -8.732    -8.811    -0.080     (0)  
   CaHSO4+         3.913e-16   3.258e-16   -15.407   -15.487    -0.080     (0)  
Cl            2.500e-03
   Cl-             2.500e-03   2.068e-03    -2.602    -2.684    -0.082     18.40
   FeCl+           1.502e-13   1.251e-13   -12.823   -12.903    -0.080     (0)  
   FeCl+2          1.159e-30   5.683e-31   -29.936   -30.245    -0.310     (0)  
   FeCl2+          5.776e-33   4.833e-33   -32.238   -32.316    -0.077     (0)  
   FeCl3           1.065e-36   1.075e-36   -35.972   -35.968     0.004     (0)  
Fe(2)         3.191e-09
   FeCO3           2.861e-09   2.888e-09    -8.543    -8.539     0.004     (0)  
   FeOH+           1.723e-10   1.442e-10    -9.764    -9.841    -0.077     (0)  
   Fe+2            8.716e-11   4.419e-11   -10.060   -10.355    -0.295    -20.61
   FeHCO3+         3.884e-11   3.234e-11   -10.411   -10.490    -0.080     (0)  
   Fe(OH)2         1.446e-11   1.459e-11   -10.840   -10.836     0.004     (0)  
   FeSO4           1.114e-11   1.124e-11   -10.953   -10.949     0.004     14.09
   Fe(OH)3-        5.272e-12   4.412e-12   -11.278   -11.355    -0.077     (0)  
   FeCl+           1.502e-13   1.251e-13   -12.823   -12.903    -0.080     (0)  
   FeHSO4+         1.327e-20   1.105e-20   -19.877   -19.957    -0.080     (0)  
   Fe(HS)2         4.047e-26   4.085e-26   -25.393   -25.389     0.004     (0)  
   Fe(HS)3-        5.669e-36   4.720e-36   -35.246   -35.326    -0.080     (0)  
Fe(3)         2.085e-11
   Fe(OH)4-        1.901e-11   1.597e-11   -10.721   -10.797    -0.076     (0)  
   Fe(OH)3         1.836e-12   1.853e-12   -11.736   -11.732     0.004     (0)  
   Fe(OH)2+        1.783e-15   1.497e-15   -14.749   -14.825    -0.076     (0)  
   FeOH+2          9.870e-22   4.839e-22   -21.006   -21.315    -0.310     (0)  
   FeSO4+          1.587e-28   1.328e-28   -27.799   -27.877    -0.077     (0)  
   Fe+3            2.757e-29   7.236e-30   -28.560   -29.141    -0.581     (0)  
   Fe(SO4)2-       5.338e-30   4.444e-30   -29.273   -29.352    -0.080     (0)  
   FeCl+2          1.159e-30   5.683e-31   -29.936   -30.245    -0.310     (0)  
   FeCl2+          5.776e-33   4.833e-33   -32.238   -32.316    -0.077     (0)  
   FeCl3           1.065e-36   1.075e-36   -35.972   -35.968     0.004     (0)  
   FeHSO4+2        1.027e-37   4.933e-38   -36.989   -37.307    -0.318     (0)  
   Fe2(OH)2+4      0.000e+00   0.000e+00   -40.016   -41.289    -1.273     (0)  
   Fe3(OH)4+5      0.000e+00   0.000e+00   -52.002   -53.991    -1.989     (0)  
H(0)          1.131e-11
   H2              5.654e-12   5.707e-12   -11.248   -11.244     0.004     28.55
Na            3.425e-02
   Na+             3.167e-02   2.648e-02    -1.499    -1.577    -0.078     -0.69
   NaCO3-          2.232e-03   1.858e-03    -2.651    -2.731    -0.080      0.66
   NaSO4-          2.304e-04   1.935e-04    -3.637    -3.713    -0.076     14.44
   NaHCO3          1.128e-04   1.139e-04    -3.948    -3.944     0.004      1.80
   NaOH            2.978e-16   3.006e-16   -15.526   -15.522     0.004     (0)  
O(0)          0.000e+00
   O2              0.000e+00   0.000e+00   -68.400   -68.396     0.004     30.61
S(-2)         1.187e-12
   HS-             1.183e-12   9.760e-13   -11.927   -12.011    -0.084     20.99
   S-2             2.645e-15   1.297e-15   -14.578   -14.887    -0.310     (0)  
   H2S             9.518e-16   9.607e-16   -15.021   -15.017     0.004     37.01
   Fe(HS)2         4.047e-26   4.085e-26   -25.393   -25.389     0.004     (0)  
   Fe(HS)3-        5.669e-36   4.720e-36   -35.246   -35.326    -0.080     (0)  
S(6)          3.122e-03
   SO4-2           2.891e-03   1.412e-03    -2.539    -2.850    -0.311     15.32
   NaSO4-          2.304e-04   1.935e-04    -3.637    -3.713    -0.076     14.44
   CaSO4           3.190e-07   3.220e-07    -6.496    -6.492     0.004      7.95
   BaSO4           9.764e-08   9.855e-08    -7.010    -7.006     0.004     (0)  
   HSO4-           2.308e-11   1.922e-11   -10.637   -10.716    -0.080     40.51
   FeSO4           1.114e-11   1.124e-11   -10.953   -10.949     0.004     14.09
   CaHSO4+         3.913e-16   3.258e-16   -15.407   -15.487    -0.080     (0)  
   FeHSO4+         1.327e-20   1.105e-20   -19.877   -19.957    -0.080     (0)  
   FeSO4+          1.587e-28   1.328e-28   -27.799   -27.877    -0.077     (0)  
   Fe(SO4)2-       5.338e-30   4.444e-30   -29.273   -29.352    -0.080     (0)  
   FeHSO4+2        1.027e-37   4.933e-38   -36.989   -37.307    -0.318     (0)  

------------------------------Saturation indices-------------------------------

  Phase               SI** log IAP   log K(303 K, 100 atm)

  Anhydrite        -4.50     -8.75   -4.25  CaSO4
  Aragonite        -0.14     -8.41   -8.28  CaCO3
  Barite            0.00     -9.71   -9.71  BaSO4
  Calcite          -0.00     -8.41   -8.41  CaCO3
  CH4(g)          -11.36    -14.27   -2.91  CH4
  CO2(g)           -4.14     -5.73   -1.58  CO2
  Fe(OH)3(a)       -4.31      0.48    4.80  Fe(OH)3
  FeS(ppt)         -8.71    -12.63   -3.92  FeS
  Goethite          1.72      0.49   -1.24  FeOOH
  Gypsum           -4.24     -8.75   -4.52  CaSO4:2H2O
  H2(g)            -8.11    -11.27   -3.16  H2
  H2O(g)           -1.35     -0.00    1.35  H2O
  H2S(g)          -13.97    -21.99   -8.02  H2S
  Halite           -5.84     -4.25    1.59  NaCl
  Hematite          5.45      0.97   -4.47  Fe2O3
  Mackinawite      -7.98    -12.63   -4.65  FeS
  Melanterite     -10.86    -13.22   -2.36  FeSO4:7H2O
  O2(g)           -65.36    -68.34   -2.98  O2
  Pyrite           -8.19    -26.57  -18.38  FeS2
  Siderite         -2.05    -12.88  -10.83  FeCO3
  Sulfur          -11.79     -7.09    4.70  S
  Witherite        -0.92     -9.38   -8.45  BaCO3

**For a gas, SI = log10(fugacity). Fugacity = pressure * phi / 1 atm.
  For ideal gases, phi = 1.

Reaction step 2.

Using mix 3.	
Using exchange 3.	Exchange assemblage after simulation 3.
Using surface 3.	
Using pure phase assemblage 3.	
Using solid solution assemblage 3.	
Using gas phase 3.	
Using temperature 3.	
Using pressure 3.	
Using reaction 3.	
Using kinetics 3.	

Mixture 3.	

	  5.000e-01 Solution 2	Solution after simulation 14.                          
	  5.000e-01 Solution 3	                                                       

Reaction 3.	

	  1.000e-03 moles of the following reaction have been added:

	                 Relative
	Reactant            moles

	NaCl                 1.00000

	                 Relative
	Element             moles
	Cl                   1.00000
	Na                   1.00000

Kinetics 3.	

	Time step: 6666.67 seconds

	Rate name       Delta Moles Total Moles   Reactant        Coefficient

	Calcite          -5.848e-09   1.000e+00   CaCO3                     1

----------------Fixed-pressure gas phase 3 dissolved completely----------------

-------------------------------Phase assemblage--------------------------------

                                                      Moles in assemblage
Phase               SI  log IAP  log K(T, P)   Initial       Final       Delta

Barite            0.00    -9.63     -9.63    1.000e+01   9.998e+00  -1.870e-03

--------------------------------Solid solutions--------------------------------


Solid solution                Component        Moles  Delta moles   Mole fract

Calcite                                     9.05e-02
                                calcite     8.97e-02    -1.03e-02     9.91e-01
                               siderite     8.04e-04    -1.96e-04     8.88e-03

------------------------------Surface composition------------------------------

Diffuse Double Layer Surface-Complexation Model

Hfo           
	 -8.082e-05  Surface charge, eq
	 -1.300e-02  sigma, C/m²
	 -2.663e-02  psi, V
	  1.019e+00  -F*psi/RT
	  2.771e+00  exp(-F*psi/RT)
	  6.000e+02  specific area, m²/g
	  6.000e+02  m² for   1.000e+00 g


Hfo_s         
	  1.000e-02  moles
	                                   Mole                     Log
	Species               Moles    Fraction    Molality    Molality

	Hfo_sO-           5.411e-03       0.541   5.411e-03      -2.267
	Hfo_sOHCa+2       1.909e-03       0.191   1.909e-03      -2.719
	Hfo_sOH           1.820e-03       0.182   1.820e-03      -2.740
	Hfo_sOHBa+2       6.506e-04       0.065   6.506e-04      -3.187
	Hfo_sOFe+         1.960e-04       0.020   1.960e-04      -3.708
	Hfo_sOH2+         1.402e-05       0.001   1.402e-05      -4.853

-----------------------------Exchange composition------------------------------

X                1.000e+00 mol

	                               Equiv-    Equivalent      Log 
	Species             Moles      alents      Fraction     Gamma

	NaX               9.808e-01   9.808e-01   9.808e-01    -0.079
	CaX2              8.392e-03   1.678e-02   1.678e-02    -0.309
	BaX2              1.219e-03   2.438e-03   2.438e-03    -0.326
	FeX2              1.156e-07   2.312e-07   2.312e-07    -0.300

-----------------------------Solution composition------------------------------

	Elements           Molality       Moles

	Ba                7.682e-07   7.682e-07
	C                 1.799e-02   1.799e-02
	Ca                1.200e-05   1.200e-05
	Cl                2.500e-03   2.500e-03
	Fe                3.652e-09   3.652e-09
	Na                3.532e-02   3.532e-02
	S                 3.221e-03   3.221e-03

----------------------------Description of solution----------------------------

                                       pH  =   9.832      Charge balance
                                       pe  =  -5.847      Adjusted to redox equilibrium
      Specific Conductance (µS/cm,  30°C)  = 3491
                          Density (g/cm³)  =   1.00637
                               Volume (L)  =   0.99592
                        Activity of water  =   0.999
                           Ionic strength  =   4.322e-02
                       Mass of water (kg)  =   1.000e+00
                 Total alkalinity (eq/kg)  =   2.735e-02
                       Total CO2 (mol/kg)  =   1.799e-02
                         Temperature (°C)  =  30.00
                           Pressure (atm)  = 200.00
                  Electrical balance (eq)  =   1.768e-04
 Percent error, 100*(Cat-|An|)/(Cat+|An|)  =   0.27
                               Iterations  =  15
                                  Total H  = 1.110209e+02
                                  Total O  = 5.557120e+01

----------------------------Distribution of species----------------------------

                                               Log       Log       Log    mole V
   Species          Molality    Activity  Molality  Activity     Gamma   cm³/mol

   OH-             1.434e-04   1.181e-04    -3.843    -3.928    -0.084     -3.28
   H+              1.709e-10   1.472e-10    -9.767    -9.832    -0.065      0.00
   H2O             5.551e+01   9.991e-01     1.744    -0.000     0.000     17.94
Ba            7.585e-07
   Ba+2            3.404e-07   1.622e-07    -6.468    -6.790    -0.322    -10.43
   BaCO3           2.797e-07   2.824e-07    -6.553    -6.549     0.004     -9.46
   BaSO4           1.207e-07   1.219e-07    -6.918    -6.914     0.004     (0)  
   BaHCO3+         1.766e-08   1.468e-08    -7.753    -7.833    -0.080     (0)  
   BaOH+           4.741e-11   3.962e-11   -10.324   -10.402    -0.078     (0)  
C(-4)         9.126e-15
   CH4             9.126e-15   9.214e-15   -14.040   -14.036     0.004     36.09
C(4)          1.737e-02
   HCO3-           8.533e-03   7.156e-03    -2.069    -2.145    -0.076     25.45
   CO3-2           6.341e-03   3.137e-03    -2.198    -2.504    -0.306     -2.60
   NaCO3-          2.362e-03   1.964e-03    -2.627    -2.707    -0.080      1.55
   NaHCO3          1.270e-04   1.283e-04    -3.896    -3.892     0.004      1.80
   CaCO3           8.488e-06   8.571e-06    -5.071    -5.067     0.004    -13.24
   CO2             1.790e-06   1.808e-06    -5.747    -5.743     0.004     34.56
   BaCO3           2.797e-07   2.824e-07    -6.553    -6.549     0.004     -9.46
   CaHCO3+         1.753e-07   1.478e-07    -6.756    -6.830    -0.074     10.42
   BaHCO3+         1.766e-08   1.468e-08    -7.753    -7.833    -0.080     (0)  
   FeCO3           3.252e-09   3.283e-09    -8.488    -8.484     0.004     (0)  
   FeHCO3+         4.700e-11   3.908e-11   -10.328   -10.408    -0.080     (0)  
   (CO2)2          6.973e-14   7.041e-14   -13.157   -13.152     0.004     69.11
Ca            1.212e-05
   CaCO3           8.488e-06   8.571e-06    -5.071    -5.067     0.004    -13.24
   Ca+2            3.080e-06   1.526e-06    -5.511    -5.816    -0.305    -16.26
   CaSO4           3.738e-07   3.774e-07    -6.427    -6.423     0.004      8.21
   CaHCO3+         1.753e-07   1.478e-07    -6.756    -6.830    -0.074     10.42
   CaOH+           2.096e-09   1.743e-09    -8.679    -8.759    -0.080     (0)  
   CaHSO4+         5.051e-16   4.200e-16   -15.297   -15.377    -0.080     (0)  
Cl            2.500e-03
   Cl-             2.500e-03   2.065e-03    -2.602    -2.685    -0.083     18.45
   FeCl+           1.770e-13   1.472e-13   -12.752   -12.832    -0.080     (0)  
   FeCl+2          1.372e-30   6.691e-31   -29.863   -30.175    -0.312     (0)  
   FeCl2+          7.324e-33   6.121e-33   -32.135   -32.213    -0.078     (0)  
   FeCl3           1.451e-36   1.465e-36   -35.838   -35.834     0.004     (0)  
Fe(2)         3.628e-09
   FeCO3           3.252e-09   3.283e-09    -8.488    -8.484     0.004     (0)  
   FeOH+           1.908e-10   1.594e-10    -9.719    -9.797    -0.078     (0)  
   Fe+2            1.035e-10   5.223e-11    -9.985   -10.282    -0.297    -19.88
   FeHCO3+         4.700e-11   3.908e-11   -10.328   -10.408    -0.080     (0)  
   Fe(OH)2         1.615e-11   1.631e-11   -10.792   -10.788     0.004     (0)  
   FeSO4           1.250e-11   1.262e-11   -10.903   -10.899     0.004     14.09
   Fe(OH)3-        5.963e-12   4.983e-12   -11.225   -11.303    -0.078     (0)  
   FeCl+           1.770e-13   1.472e-13   -12.752   -12.832    -0.080     (0)  
   FeHSO4+         1.679e-20   1.396e-20   -19.775   -19.855    -0.080     (0)  
   Fe(HS)2         8.797e-26   8.882e-26   -25.056   -25.051     0.004     (0)  
   Fe(HS)3-        1.740e-35   1.447e-35   -34.760   -34.840    -0.080     (0)  
Fe(3)         2.382e-11
   Fe(OH)4-        2.174e-11   1.823e-11   -10.663   -10.739    -0.076     (0)  
   Fe(OH)3         2.074e-12   2.094e-12   -11.683   -11.679     0.004     (0)  
   Fe(OH)2+        1.996e-15   1.674e-15   -14.700   -14.776    -0.076     (0)  
   FeOH+2          1.098e-21   5.353e-22   -20.960   -21.271    -0.312     (0)  
   FeSO4+          1.889e-28   1.579e-28   -27.724   -27.802    -0.078     (0)  
   Fe+3            3.039e-29   7.921e-30   -28.517   -29.101    -0.584     (0)  
   Fe(SO4)2-       6.902e-30   5.739e-30   -29.161   -29.241    -0.080     (0)  
   FeCl+2          1.372e-30   6.691e-31   -29.863   -30.175    -0.312     (0)  
   FeCl2+          7.324e-33   6.121e-33   -32.135   -32.213    -0.078     (0)  
   FeCl3           1.451e-36   1.465e-36   -35.838   -35.834     0.004     (0)  
   FeHSO4+2        1.304e-37   6.236e-38   -36.885   -37.205    -0.320     (0)  
   Fe2(OH)2+4      1.204e-40   0.000e+00   -39.919   -41.201    -1.282     (0)  
   Fe3(OH)4+5      0.000e+00   0.000e+00   -51.852   -53.854    -2.003     (0)  
H(0)          1.139e-11
   H2              5.693e-12   5.748e-12   -11.245   -11.240     0.004     28.51
Na            3.532e-02
   Na+             3.259e-02   2.721e-02    -1.487    -1.565    -0.078     -0.40
   NaCO3-          2.362e-03   1.964e-03    -2.627    -2.707    -0.080      1.55
   NaSO4-          2.440e-04   2.046e-04    -3.613    -3.689    -0.076     13.88
   NaHCO3          1.270e-04   1.283e-04    -3.896    -3.892     0.004      1.80
   NaOH            3.090e-16   3.120e-16   -15.510   -15.506     0.004     (0)  
O(0)          0.000e+00
   O2              0.000e+00   0.000e+00   -68.496   -68.492     0.004     30.45
S(-2)         1.540e-12
   HS-             1.535e-12   1.264e-12   -11.814   -11.898    -0.084     21.02
   S-2             3.525e-15   1.719e-15   -14.453   -14.765    -0.312     (0)  
   H2S             1.230e-15   1.242e-15   -14.910   -14.906     0.004     36.84
   Fe(HS)2         8.797e-26   8.882e-26   -25.056   -25.051     0.004     (0)  
   Fe(HS)3-        1.740e-35   1.447e-35   -34.760   -34.840    -0.080     (0)  
S(6)          3.221e-03
   SO4-2           2.977e-03   1.446e-03    -2.526    -2.840    -0.314     14.96
   NaSO4-          2.440e-04   2.046e-04    -3.613    -3.689    -0.076     13.88
   CaSO4           3.738e-07   3.774e-07    -6.427    -6.423     0.004      8.21
   BaSO4           1.207e-07   1.219e-07    -6.918    -6.914     0.004     (0)  
   HSO4-           2.271e-11   1.889e-11   -10.644   -10.724    -0.080     40.30
   FeSO4           1.250e-11   1.262e-11   -10.903   -10.899     0.004     14.09
   CaHSO4+         5.051e-16   4.200e-16   -15.297   -15.377    -0.080     (0)  
   FeHSO4+         1.679e-20   1.396e-20   -19.775   -19.855    -0.080     (0)  
   FeSO4+          1.889e-28   1.579e-28   -27.724   -27.802    -0.078     (0)  
   Fe(SO4)2-       6.902e-30   5.739e-30   -29.161   -29.241    -0.080     (0)  
   FeHSO4+2        1.304e-37   6.236e-38   -36.885   -37.205    -0.320     (0)  

------------------------------Saturation indices-------------------------------

  Phase               SI** log IAP   log K(303 K, 200 atm)

  Anhydrite        -4.50     -8.67   -4.17  CaSO4
  Aragonite        -0.13     -8.32   -8.19  CaCO3
  Barite            0.00     -9.63   -9.63  BaSO4
  Calcite          -0.00     -8.32   -8.32  CaCO3
  CH4(g)          -11.07    -14.04   -2.97  CH4
  CO2(g)           -4.10     -5.74   -1.64  CO2
  Fe(OH)3(a)       -4.31      0.39    4.70  Fe(OH)3
  FeS(ppt)         -8.43    -12.35   -3.92  FeS
  Goethite          1.62      0.39   -1.23  FeOOH
  Gypsum           -4.21     -8.66   -4.45  CaSO4:2H2O
  H2(g)            -8.03    -11.24   -3.21  H2
  H2O(g)           -1.31     -0.00    1.31  H2O
  H2S(g)          -13.68    -21.73   -8.05  H2S
  Halite           -5.86     -4.25    1.61  NaCl
  Hematite          5.25      0.79   -4.46  Fe2O3
  Mackinawite      -7.77    -12.35   -4.58  FeS
  Melanterite     -10.55    -13.12   -2.57  FeSO4:7H2O
  O2(g)           -65.46    -68.49   -3.03  O2
  Pyrite           -7.77    -26.11  -18.34  FeS2
  Siderite         -2.05    -12.79  -10.74  FeCO3
  Sulfur          -11.57     -6.94    4.64  S
  Witherite        -0.94     -9.29   -8.35  BaCO3

**For a gas, SI = log10(fugacity). Fugacity = pressure * phi / 1 atm.
  For ideal gases, phi = 1.

Reaction step 3.

Using mix 3.	
Using exchange 3.	Exchange assemblage after simulation 3.
Using surface 3.	
Using pure phase assemblage 3.	
Using solid solution assemblage 3.	
Using gas phase 3.	
Using temperature 3.	
Using pressure 3.	
Using reaction 3.	
Using kinetics 3.	

Mixture 3.	

	  5.000e-01 Solution 2	Solution after simulation 14.                          
	  5.000e-01 Solution 3	                                                       

Reaction 3.	

	  1.000e-03 moles of the following reaction have been added:

	                 Relative
	Reactant            moles

	NaCl                 1.00000

	                 Relative
	Element             moles
	Cl                   1.00000
	Na                   1.00000

Kinetics 3.	

	Time step: 10000 seconds

	Rate name       Delta Moles Total Moles   Reactant        Coefficient

	Calcite          -8.819e-09   1.000e+00   CaCO3                     1

----------------Fixed-pressure gas phase 3 dissolved completely----------------

-------------------------------Phase assemblage--------------------------------

                                                      Moles in assemblage
Phase               SI  log IAP  log K(T, P)   Initial       Final       Delta

Barite            0.00    -9.55     -9.55    1.000e+01   9.998e+00  -1.995e-03

--------------------------------Solid solutions--------------------------------


Solid solution                Component        Moles  Delta moles   Mole fract

Calcite                                     8.98e-02
                                calcite     8.90e-02    -1.10e-02     9.91e-01
                               siderite     8.02e-04    -1.98e-04     8.93e-03

------------------------------Surface composition------------------------------

Diffuse Double Layer Surface-Complexation Model

Hfo           
	 -7.691e-05  Surface charge, eq
	 -1.237e-02  sigma, C/m²
	 -2.488e-02  psi, V
	  9.526e-01  -F*psi/RT
	  2.593e+00  exp(-F*psi/RT)
	  6.000e+02  specific area, m²/g
	  6.000e+02  m² for   1.000e+00 g


Hfo_s         
	  1.000e-02  moles
	                                   Mole                     Log
	Species               Moles    Fraction    Molality    Molality

	Hfo_sO-           5.429e-03       0.543   5.429e-03      -2.265
	Hfo_sOHCa+2       1.911e-03       0.191   1.911e-03      -2.719
	Hfo_sOH           1.790e-03       0.179   1.790e-03      -2.747
	Hfo_sOHBa+2       6.595e-04       0.066   6.595e-04      -3.181
	Hfo_sOFe+         1.977e-04       0.020   1.977e-04      -3.704
	Hfo_sOH2+         1.352e-05       0.001   1.352e-05      -4.869

-----------------------------Exchange composition------------------------------

X                1.000e+00 mol

	                               Equiv-    Equivalent      Log 
	Species             Moles      alents      Fraction     Gamma

	NaX               9.792e-01   9.792e-01   9.792e-01    -0.080
	CaX2              9.066e-03   1.813e-02   1.813e-02    -0.312
	BaX2              1.335e-03   2.670e-03   2.670e-03    -0.330
	FeX2              1.234e-07   2.468e-07   2.468e-07    -0.303

-----------------------------Solution composition------------------------------

	Elements           Molality       Moles

	Ba                9.330e-07   9.330e-07
	C                 1.866e-02   1.866e-02
	Ca                1.441e-05   1.441e-05
	Cl                2.500e-03   2.500e-03
	Fe                5.101e-09   5.101e-09
	Na                3.812e-02   3.812e-02
	S                 3.396e-03   3.396e-03

----------------------------Description of solution----------------------------

                                       pH  =   9.826      Charge balance
                                       pe  =  -5.828      Adjusted to redox equilibrium
       Specific Conductance (µS/cm, 30°C)  = 3661
                          Density (g/cm³)  =   1.01081
                               Volume (L)  =   0.99170
                        Activity of water  =   0.999
                           Ionic strength  =   4.510e-02
                       Mass of water (kg)  =   1.000e+00
                 Total alkalinity (eq/kg)  =   2.869e-02
                       Total CO2 (mol/kg)  =   1.866e-02
                         Temperature (°C)  =  30.00
                           Pressure (atm)  = 300.00
                  Electrical balance (eq)  =   1.733e-04
 Percent error, 100*(Cat-|An|)/(Cat+|An|)  =   0.26
                               Iterations  =  15
                                  Total H  = 1.110209e+02
                                  Total O  = 5.557290e+01

----------------------------Distribution of species----------------------------

                                               Log       Log       Log    mole V
   Species          Molality    Activity  Molality  Activity     Gamma   cm³/mol

   OH-             1.540e-04   1.262e-04    -3.812    -3.899    -0.087     -3.06
   H+              1.740e-10   1.494e-10    -9.759    -9.826    -0.066      0.00
   H2O             5.551e+01   9.990e-01     1.744    -0.000     0.000     17.86
Ba            9.175e-07
   Ba+2            4.033e-07   1.912e-07    -6.394    -6.719    -0.324     -9.72
   BaCO3           3.425e-07   3.460e-07    -6.465    -6.461     0.004     -8.92
   BaSO4           1.493e-07   1.508e-07    -6.826    -6.822     0.004     (0)  
   BaHCO3+         2.228e-08   1.850e-08    -7.652    -7.733    -0.081     (0)  
   BaOH+           5.474e-11   4.569e-11   -10.262   -10.340    -0.078     (0)  
C(-4)         1.199e-14
   CH4             1.199e-14   1.211e-14   -13.921   -13.917     0.004     36.19
C(4)          1.780e-02
   HCO3-           8.513e-03   7.132e-03    -2.070    -2.147    -0.077     25.55
   CO3-2           6.638e-03   3.269e-03    -2.178    -2.486    -0.308     -1.81
   NaCO3-          2.491e-03   2.069e-03    -2.604    -2.684    -0.081      2.39
   NaHCO3          1.433e-04   1.447e-04    -3.844    -3.839     0.004      1.80
   CaCO3           1.030e-05   1.041e-05    -4.987    -4.983     0.004    -12.64
   CO2             1.703e-06   1.720e-06    -5.769    -5.765     0.004     34.50
   BaCO3           3.425e-07   3.460e-07    -6.465    -6.461     0.004     -8.92
   CaHCO3+         2.066e-07   1.740e-07    -6.685    -6.759    -0.075     10.63
   BaHCO3+         2.228e-08   1.850e-08    -7.652    -7.733    -0.081     (0)  
   FeCO3           3.695e-09   3.732e-09    -8.432    -8.428     0.004     (0)  
   FeHCO3+         5.677e-11   4.715e-11   -10.246   -10.327    -0.081     (0)  
   (CO2)2          6.311e-14   6.374e-14   -13.200   -13.196     0.004     69.00
Ca            1.460e-05
   CaCO3           1.030e-05   1.041e-05    -4.987    -4.983     0.004    -12.64
   Ca+2            3.651e-06   1.801e-06    -5.438    -5.744    -0.307    -15.64
   CaSO4           4.357e-07   4.400e-07    -6.361    -6.357     0.004      8.45
   CaHCO3+         2.066e-07   1.740e-07    -6.685    -6.759    -0.075     10.63
   CaOH+           2.364e-09   1.964e-09    -8.626    -8.707    -0.081     (0)  
   CaHSO4+         6.486e-16   5.387e-16   -15.188   -15.269    -0.081     (0)  
Cl            2.500e-03
   Cl-             2.500e-03   2.062e-03    -2.602    -2.686    -0.084     18.50
   FeCl+           2.082e-13   1.729e-13   -12.682   -12.762    -0.081     (0)  
   FeCl+2          1.620e-30   7.864e-31   -29.790   -30.104    -0.314     (0)  
   FeCl2+          9.274e-33   7.741e-33   -32.033   -32.111    -0.078     (0)  
   FeCl3           1.974e-36   1.994e-36   -35.705   -35.700     0.004     (0)  
Fe(2)         4.123e-09
   FeCO3           3.695e-09   3.732e-09    -8.432    -8.428     0.004     (0)  
   FeOH+           2.109e-10   1.761e-10    -9.676    -9.754    -0.078     (0)  
   Fe+2            1.219e-10   6.126e-11    -9.914   -10.213    -0.299    -19.20
   FeHCO3+         5.677e-11   4.715e-11   -10.246   -10.327    -0.081     (0)  
   Fe(OH)2         1.804e-11   1.822e-11   -10.744   -10.739     0.004     (0)  
[...]
O(0)          0.000e+00
   O2              0.000e+00   0.000e+00   -68.260   -68.255     0.004     30.45
S(-2)         6.908e-13
   HS-             6.888e-13   5.651e-13   -12.162   -12.248    -0.086     21.03
   S-2             1.209e-15   5.820e-16   -14.918   -15.235    -0.318     (0)  
   H2S             7.259e-16   7.333e-16   -15.139   -15.135     0.004     36.84
   Fe(HS)2         1.907e-26   1.926e-26   -25.720   -25.715     0.004     (0)  
   Fe(HS)3-        1.692e-36   1.402e-36   -35.772   -35.853    -0.082     (0)  
S(6)          3.306e-03
   SO4-2           3.042e-03   1.458e-03    -2.517    -2.836    -0.319     14.98
   NaSO4-          2.635e-04   2.203e-04    -3.579    -3.657    -0.078     13.93
   CaSO4           3.982e-07   4.022e-07    -6.400    -6.396     0.004      8.21
   BaSO4           1.207e-07   1.219e-07    -6.918    -6.914     0.004     (0)  
   HSO4-           3.035e-11   2.515e-11   -10.518   -10.599    -0.082     40.30
   FeSO4           1.368e-11   1.382e-11   -10.864   -10.860     0.004     14.09
   CaHSO4+         7.131e-16   5.910e-16   -15.147   -15.228    -0.082     (0)  
   FeHSO4+         2.435e-20   2.018e-20   -19.614   -19.695    -0.082     (0)  
   FeSO4+          3.139e-28   2.615e-28   -27.503   -27.583    -0.079     (0)  
   Fe(SO4)2-       1.157e-29   9.587e-30   -28.937   -29.018    -0.082     (0)  
   FeHSO4+2        2.891e-37   1.364e-37   -36.539   -36.865    -0.326     (0)  

------------------------------Saturation indices-------------------------------

  Phase               SI** log IAP   log K(303 K, 200 atm)

  Anhydrite        -4.47     -8.64   -4.17  CaSO4
  Aragonite        -0.13     -8.32   -8.19  CaCO3
  Barite            0.00     -9.63   -9.63  BaSO4
  Calcite          -0.00     -8.32   -8.32  CaCO3
  CH4(g)          -11.32    -14.29   -2.97  CH4
  CO2(g)           -3.88     -5.53   -1.64  CO2
  Fe(OH)3(a)       -4.46      0.25    4.70  Fe(OH)3
  FeS(ppt)         -8.86    -12.78   -3.92  FeS
  Goethite          1.48      0.25   -1.23  FeOOH
  Gypsum           -4.18     -8.63   -4.45  CaSO4:2H2O
  H2(g)            -8.15    -11.36   -3.21  H2
  H2O(g)           -1.31     -0.00    1.31  H2O
  H2S(g)          -13.91    -21.96   -8.05  H2S
  Halite           -5.75     -4.14    1.61  NaCl
  Hematite          4.96      0.50   -4.46  Fe2O3
  Mackinawite      -8.20    -12.78   -4.58  FeS
  Melanterite     -10.52    -13.09   -2.57  FeSO4:7H2O
  O2(g)           -65.22    -68.26   -3.03  O2
  Pyrite           -8.32    -26.65  -18.34  FeS2
  Siderite         -2.03    -12.77  -10.74  FeCO3
  Sulfur          -11.69     -7.05    4.64  S
  Witherite        -0.97     -9.32   -8.35  BaCO3

**For a gas, SI = log10(fugacity). Fugacity = pressure * phi / 1 atm.
  For ideal gases, phi = 1.

Reaction step 3.

Using mix 1.	
Using exchange 1.	Exchange assemblage after simulation 3.
Using surface 1.	
Using pure phase assemblage 1.	
Using solid solution assemblage 1.	
Using gas phase 1.	
Using temperature 1.	
Using pressure 1.	
Using reaction 1.	
Using kinetics 1.	

Mixture 1.	

	  5.000e-01 Solution 1	                                                       

Reaction 1.	

	  1.000e-03 moles of the following reaction have been added:

	                 Relative
	Reactant            moles

	NaCl                 1.00000

	                 Relative
	Element             moles
	Cl                   1.00000
	Na                   1.00000

Kinetics 1.	

	Time step: 1 seconds

	Rate name       Delta Moles Total Moles   Reactant        Coefficient

	Calcite          -9.057e-13   1.000e+00   CaCO3                     1

----------------Fixed-pressure gas phase 1 dissolved completely----------------

-------------------------------Phase assemblage--------------------------------

                                                      Moles in assemblage
Phase               SI  log IAP  log K(T, P)   Initial       Final       Delta

Barite            0.00    -9.55     -9.55    1.000e+01   9.998e+00  -1.766e-03

--------------------------------Solid solutions--------------------------------


Solid solution                Component        Moles  Delta moles   Mole fract

Calcite                                     9.06e-02
                                calcite     8.98e-02    -1.02e-02     9.91e-01
                               siderite     8.31e-04    -1.69e-04     9.17e-03

------------------------------Surface composition------------------------------

Diffuse Double Layer Surface-Complexation Model

Hfo           
	 -7.048e-05  Surface charge, eq
	 -1.133e-02  sigma, C/m²
	 -2.235e-02  psi, V
	  8.557e-01  -F*psi/RT
	  2.353e+00  exp(-F*psi/RT)
	  6.000e+02  specific area, m²/g
	  6.000e+02  m² for   1.000e+00 g


Hfo_s         
	  1.000e-02  moles
	                                   Mole                     Log
	Species               Moles    Fraction    Molality    Molality

	Hfo_sO-           5.257e-03       0.526   1.051e-02      -1.978
	Hfo_sOH           2.056e-03       0.206   4.113e-03      -2.386
	Hfo_sOHCa+2       1.888e-03       0.189   3.775e-03      -2.423
	Hfo_sOHBa+2       6.118e-04       0.061   1.224e-03      -2.912
	Hfo_sOFe+         1.690e-04       0.017   3.381e-04      -3.471
	Hfo_sOH2+         1.843e-05       0.002   3.686e-05      -4.433

-----------------------------Exchange composition------------------------------

X                1.000e+00 mol

	                               Equiv-    Equivalent      Log 
	Species             Moles      alents      Fraction     Gamma

	NaX               9.810e-01   9.810e-01   9.810e-01    -0.082
	CaX2              8.326e-03   1.665e-02   1.665e-02    -0.318
	BaX2              1.154e-03   2.308e-03   2.308e-03    -0.337
	FeX2              1.163e-07   2.326e-07   2.326e-07    -0.309

-----------------------------Solution composition------------------------------

	Elements           Molality       Moles

	Ba                9.150e-07   4.575e-07
	C                 2.081e-02   1.040e-02
	Ca                1.469e-05   7.345e-06
	Cl                3.000e-03   1.500e-03
	Fe                5.203e-09   2.602e-09
	Na                4.092e-02   2.046e-02
	S                 3.532e-03   1.766e-03

----------------------------Description of solution----------------------------

                                       pH  =   9.709      Charge balance
                                       pe  =  -5.651      Adjusted to redox equilibrium
       Specific Conductance (µS/cm, 30°C)  = 3901
                          Density (g/cm³)  =   1.01097
                               Volume (L)  =   0.49588
                        Activity of water  =   0.999
                           Ionic strength  =   4.763e-02
                       Mass of water (kg)  =   5.000e-01
                 Total alkalinity (eq/kg)  =   3.067e-02
                       Total CO2 (mol/kg)  =   2.081e-02
                         Temperature (°C)  =  30.00
                           Pressure (atm)  = 300.00
                  Electrical balance (eq)  =   1.083e-04
 Percent error, 100*(Cat-|An|)/(Cat+|An|)  =   0.29
                               Iterations  =  24
                                  Total H  = 5.551166e+01
                                  Total O  = 2.779137e+01

----------------------------Distribution of species----------------------------

                                               Log       Log       Log    mole V
   Species          Molality    Activity  Molality  Activity     Gamma   cm³/mol

   OH-             1.183e-04   9.652e-05    -3.927    -4.015    -0.088     -3.05
   H+              2.280e-10   1.953e-10    -9.642    -9.709    -0.067      0.00
   H2O             5.551e+01   9.989e-01     1.744    -0.000     0.000     17.86
Ba            8.998e-07
   Ba+2            4.021e-07   1.877e-07    -6.396    -6.727    -0.331     -9.71
   BaCO3           3.211e-07   3.245e-07    -6.493    -6.489     0.005     -8.92
   BaSO4           1.492e-07   1.508e-07    -6.826    -6.822     0.005     (0)  
   BaHCO3+         2.742e-08   2.269e-08    -7.562    -7.644    -0.082     (0)  
   BaOH+           4.125e-11   3.430e-11   -10.385   -10.465    -0.080     (0)  
C(-4)         7.704e-15
   CH4             7.704e-15   7.785e-15   -14.113   -14.109     0.005     36.19
C(4)          1.987e-02
   HCO3-           1.067e-02   8.907e-03    -1.972    -2.050    -0.078     25.56
   CO3-2           6.432e-03   3.122e-03    -2.192    -2.506    -0.314     -1.79
   NaCO3-          2.561e-03   2.119e-03    -2.592    -2.674    -0.082      2.41
   NaHCO3          1.918e-04   1.939e-04    -3.717    -3.712     0.005      1.80
   CaCO3           1.030e-05   1.041e-05    -4.987    -4.983     0.005    -12.64
   CO2             2.779e-06   2.809e-06    -5.556    -5.551     0.005     34.50
   BaCO3           3.211e-07   3.245e-07    -6.493    -6.489     0.005     -8.92
   CaHCO3+         2.710e-07   2.274e-07    -6.567    -6.643    -0.076     10.63
   BaHCO3+         2.742e-08   2.269e-08    -7.562    -7.644    -0.082     (0)  
   FeCO3           3.780e-09   3.819e-09    -8.423    -8.418     0.005     (0)  
   FeHCO3+         7.625e-11   6.309e-11   -10.118   -10.200    -0.082     (0)  
   (CO2)2          1.682e-13   1.700e-13   -12.774   -12.770     0.005     69.00
Ca            1.491e-05
   CaCO3           1.030e-05   1.041e-05    -4.987    -4.983     0.005    -12.64
   Ca+2            3.874e-06   1.885e-06    -5.412    -5.725    -0.313    -15.63
   CaSO4           4.642e-07   4.691e-07    -6.333    -6.329     0.005      8.45
   CaHCO3+         2.710e-07   2.274e-07    -6.567    -6.643    -0.076     10.63
   CaOH+           1.899e-09   1.572e-09    -8.721    -8.804    -0.082     (0)  
   CaHSO4+         9.074e-16   7.508e-16   -15.042   -15.124    -0.082     (0)  
Cl            3.000e-03
   Cl-             3.000e-03   2.464e-03    -2.523    -2.608    -0.085     18.50
   FeCl+           2.675e-13   2.214e-13   -12.573   -12.655    -0.082     (0)  
   FeCl+2          3.093e-30   1.479e-30   -29.510   -29.830    -0.320     (0)  
   FeCl2+          2.092e-32   1.740e-32   -31.679   -31.760    -0.080     (0)  
   FeCl3           5.299e-36   5.355e-36   -35.276   -35.271     0.005     (0)  
Fe(2)         4.192e-09
   FeCO3           3.780e-09   3.819e-09    -8.423    -8.418     0.005     (0)  
   FeOH+           1.735e-10   1.443e-10    -9.761    -9.841    -0.080     (0)  
   Fe+2            1.323e-10   6.562e-11    -9.878   -10.183    -0.305    -19.19
   FeHCO3+         7.625e-11   6.309e-11   -10.118   -10.200    -0.082     (0)  
   FeSO4           1.526e-11   1.542e-11   -10.816   -10.812     0.005     14.09
   Fe(OH)2         1.130e-11   1.142e-11   -10.947   -10.942     0.005     (0)  
   Fe(OH)3-        3.245e-12   2.699e-12   -11.489   -11.569    -0.080     (0)  
   FeCl+           2.675e-13   2.214e-13   -12.573   -12.655    -0.082     (0)  
   FeHSO4+         3.027e-20   2.505e-20   -19.519   -19.601    -0.082     (0)  
   Fe(HS)2         5.467e-26   5.524e-26   -25.262   -25.258     0.005     (0)  
   Fe(HS)3-        7.930e-36   6.561e-36   -35.101   -35.183    -0.082     (0)  
Fe(3)         1.510e-11
   Fe(OH)4-        1.345e-11   1.123e-11   -10.871   -10.950    -0.078     (0)  
   Fe(OH)3         1.649e-12   1.667e-12   -11.783   -11.778     0.005     (0)  
   Fe(OH)2+        2.063e-15   1.722e-15   -14.685   -14.764    -0.078     (0)  
   FeOH+2          1.489e-21   7.118e-22   -20.827   -21.148    -0.320     (0)  
   FeSO4+          3.606e-28   2.999e-28   -27.443   -27.523    -0.080     (0)  
   Fe+3            5.380e-29   1.361e-29   -28.269   -28.866    -0.597     (0)  
   Fe(SO4)2-       1.456e-29   1.205e-29   -28.837   -28.919    -0.082     (0)  
   FeCl+2          3.093e-30   1.479e-30   -29.510   -29.830    -0.320     (0)  
   FeCl2+          2.092e-32   1.740e-32   -31.679   -31.760    -0.080     (0)  
   FeCl3           5.299e-36   5.355e-36   -35.276   -35.271     0.005     (0)  
   FeHSO4+2        3.507e-37   1.644e-37   -36.455   -36.784    -0.329     (0)  
   Fe2(OH)2+4      2.305e-40   0.000e+00   -39.637   -40.953    -1.316     (0)  
   Fe3(OH)4+5      0.000e+00   0.000e+00   -51.538   -53.594    -2.057     (0)  
H(0)          9.049e-12
   H2              4.525e-12   4.572e-12   -11.344   -11.340     0.005     28.47
Na            3.908e-02
   Na+             3.605e-02   2.996e-02    -1.443    -1.524    -0.080     -0.11
   NaCO3-          2.561e-03   2.119e-03    -2.592    -2.674    -0.082      2.41
   NaSO4-          2.841e-04   2.372e-04    -3.547    -3.625    -0.078     13.43
   NaHCO3          1.918e-04   1.939e-04    -3.717    -3.712     0.005      1.80
   NaOH            2.635e-16   2.663e-16   -15.579   -15.575     0.005     (0)  
O(0)          0.000e+00
   O2              0.000e+00   0.000e+00   -68.388   -68.383     0.005     30.31
S(-2)         1.037e-12
   HS-             1.034e-12   8.468e-13   -11.985   -12.072    -0.087     21.06
   S-2             1.889e-15   9.034e-16   -14.724   -15.044    -0.320     (0)  
   H2S             1.075e-15   1.086e-15   -14.969   -14.964     0.005     36.69
   Fe(HS)2         5.467e-26   5.524e-26   -25.262   -25.258     0.005     (0)  
   Fe(HS)3-        7.930e-36   6.561e-36   -35.101   -35.183    -0.082     (0)  
S(6)          3.457e-03
   SO4-2           3.173e-03   1.511e-03    -2.499    -2.821    -0.322     14.65
   NaSO4-          2.841e-04   2.372e-04    -3.547    -3.625    -0.078     13.43
   CaSO4           4.642e-07   4.691e-07    -6.333    -6.329     0.005      8.45
   BaSO4           1.492e-07   1.508e-07    -6.826    -6.822     0.005     (0)  
   HSO4-           2.984e-11   2.469e-11   -10.525   -10.607    -0.082     40.11
   FeSO4           1.526e-11   1.542e-11   -10.816   -10.812     0.005     14.09
   CaHSO4+         9.074e-16   7.508e-16   -15.042   -15.124    -0.082     (0)  
   FeHSO4+         3.027e-20   2.505e-20   -19.519   -19.601    -0.082     (0)  
   FeSO4+          3.606e-28   2.999e-28   -27.443   -27.523    -0.080     (0)  
   Fe(SO4)2-       1.456e-29   1.205e-29   -28.837   -28.919    -0.082     (0)  
   FeHSO4+2        3.507e-37   1.644e-37   -36.455   -36.784    -0.329     (0)  

------------------------------Saturation indices-------------------------------

  Phase               SI** log IAP   log K(303 K, 300 atm)

  Anhydrite        -4.48     -8.57   -4.09  CaSO4
  Aragonite        -0.13     -8.23   -8.10  CaCO3
  Barite            0.00     -9.55   -9.55  BaSO4
  Calcite          -0.00     -8.23   -8.23  CaCO3
  CH4(g)          -11.48    -14.51   -3.03  CH4
  CO2(g)           -3.86     -5.56   -1.70  CO2
  Fe(OH)3(a)       -4.25      0.36    4.61  Fe(OH)3
  FeS(ppt)         -9.06    -12.98   -3.92  FeS
  Goethite          1.72      0.36   -1.36  FeOOH
  Gypsum           -4.19     -8.57   -4.38  CaSO4:2H2O
  H2(g)            -8.18    -11.44   -3.26  H2
  H2O(g)           -1.28     -0.00    1.28  H2O
  H2S(g)          -14.09    -22.18   -8.09  H2S
  Halite           -5.74     -4.12    1.62  NaCl
  Hematite          5.37      0.71   -4.66  Fe2O3
  Mackinawite      -8.32    -12.98   -4.66  FeS
  Melanterite     -10.26    -13.04   -2.78  FeSO4:7H2O
  O2(g)           -65.10    -68.19   -3.08  O2
  Pyrite           -8.59    -27.05  -18.46  FeS2
  Siderite         -2.04    -12.70  -10.66  FeCO3
  Sulfur          -11.85     -7.27    4.58  S
  Witherite        -0.95     -9.21   -8.26  BaCO3

**For a gas, SI = log10(fugacity). Fugacity = pressure * phi / 1 atm.
  For ideal gases, phi = 1.

------------------
End of simulation.
------------------

-------------------------------------
Reading input data for simulation 19.
-------------------------------------

	DELETE
		-solution  -1--2	 	
		-equilibrium_phases	-1
			-2
		-exchange	-2--1
		-surface	-1
			-2
		-solid_solution
			-2
			-1
		-gas_phase	
			-2--1
		-kinetics	
				-1--2 -5
		-mix 		-5--1			
		-reaction	-5--1
		-temperature	-5--1
		-pressure	-5--1
	END
------------------
End of simulation.
------------------

-------------------------------------
Reading input data for simulation 20.
-------------------------------------

	DUMP
		-all
	END
------------------
End of simulation.
------------------

-------------------------------------
Reading input data for simulation 21.
-------------------------------------

	SOLUTION_MODIFY       1 New soln description
	  -totals
	    Cl   0.0020000000000003
	    H(0)   1.4155655514601e-025
	    Na   0.0020000000000003
	EQUILIBRIUM_PHASES_MODIFY       1 New pp description
	  -component               Barite
	    -moles                 20
	    -dissolve_only         1
	  -component               Calcite
	    -moles                 20
	    -dissolve_only         1
	EXCHANGE_MODIFY       1 New ex description
	  -pitzer_exchange_gammas 1
	  -component              X
	    -totals
	      Na   3.0000000058717
	      X   3.0000000058717
	  -component               Y
	    -la                    2.0000000302372
	    -charge_balance        0
	    -phase_proportion              0
	    -formula_z                     0
	    -totals
	      Na   2.0000000058717
	      X   2.0000000058717
	SURFACE_MODIFY      1 New surface def
	  -type 2
	  -dl_type 0
	  -sites_units 0
	  -only_counter_ions 0
	  -thickness 1e-008
	  -debye_lengths 0
	  -DDL_viscosity 1
	  -DDL_limit 0.8
	  -transport 0
	  -component	Hfo_s
	      -formula_z             0
	      -moles                 0
	      -la                    -0.11486188676541
	      -charge_balance        3.7853465372651e-005
	      -phase_proportion      0
	      -Dw                    0
	      -totals
	        H   0.02003785346547
	        Hfo_s   0.020000000000097
	        O   0.020000000000097
	  -charge_component 	Hfo
	      -specific_area         700
	      -grams                 1
	      -charge_balance        5.7853465372651e-005
	      -mass_water            0
	      -la_psi                0.55146269389617
	      -capacitance0          3
	      -capacitance1          5
	      -diffuse_layer_totals 
	SOLID_SOLUTIONS_MODIFY       1 New ss def
	  -solid_solution            Calcite
	      -a0                    0
	      -a1                    0
	      -ag0                   0
	      -ag1                   0
	      -miscibility           0
	      -xb1                   -6.2774385622042e+066
	      -xb2                   -6.2774385622042e+066
	      -component	calcite      
	        -moles   	0.2
	      -component	rhodochrosite 
	        -moles          0.2  
	  -solid_solution	Barite
	      -a0                    0
	      -a1                    0
	      -ag0                   0
	      -ag1                   0
	      -miscibility           0
	      -xb1                   -6.2774385622042e+066
	      -xb2                   -6.2774385622042e+066
	      -component 	Barite
	        -moles          0.2
	      -component	Gypsum
	        -moles          0.2      
	GAS_PHASE_MODIFY      1 New gas_phase def
	  -type               0
	  -total_p            1
	  -volume             1
	  -component 	CO2(g)
	  	-moles		2.4305508698401e-005
	  -component	N2(g)	
	       -moles		1e-5
	KINETICS_MODIFY       1 New kinetics def
	  -bad_step_max      200
	  -use_cvode         1
	  -cvode_steps       200
	  -cvode_order       5
	  -component           Calcite
	    -tol                   1e-009
	    -m                     0.9999999999991
	    -m0                    1
	    -moles                 8.9805940461929e-010
	    -namecoef
	      CaCO3   1
	      MgCO3   2
	    -d_params
	      1 1 1 1 
	  -totals         
	    C   8.9801193858101e-013
	    Ca   8.9801193858101e-013
	    O   2.694035815743e-012
	DUMP
		-solution 1
		-equilibrium 1
		-exchange 1
		-surface 1
		-solid_solution 1
		-gas_phase 1
		-kinetics  1
	END
------------------
End of simulation.
------------------

-------------------------------------
Reading input data for simulation 22.
-------------------------------------

-------------------------------
End of Run after 0.046 Seconds.
-------------------------------

