   Input file: PR_EQ_GP
  Output file: PR_EQ_GP.out
Database file: ../database/Amm.dat

------------------
Reading data base.
------------------

	SOLUTION_MASTER_SPECIES
	SOLUTION_SPECIES
	PHASES
	EXCHANGE_MASTER_SPECIES
	EXCHANGE_SPECIES
	SURFACE_MASTER_SPECIES
	SURFACE_SPECIES
	END
------------------------------------
Reading input data for simulation 1.
------------------------------------

	database ../database/Amm.dat
	SOLUTION 1
	pH 7 charge
	N 1 N2(g) 2
	C(4) 1 CO2(g) 2
	SOLUTION_MASTER_SPECIES
	Amm		AmmH+	0.0	AmmH	17.0
	Mth		Mth	0.0	Mth	16
	Sg		HSg-	1.0	Sg	32
	SOLUTION_SPECIES
	AmmH+ = AmmH+
		gamma	2.5	0.0
		dw	 1.98e-9
		millero 17.47 -3.400e-3 7.600e-4 # From Millero, 1971, d, e and f not reported
	AmmH+ = Amm + H+
		log_k	-9.252
		delta_h 12.48	kcal
		analytical_expression    0.6322    -0.001225     -2835.76
		dw	 2.28e-9
	Mth = Mth
	HSg- = HSg-
		gamma	3.5	0.0
		dw	 1.73e-9
	HSg- = Sg-2 + H+
		log_k	-12.918
		delta_h 12.1	kcal
		gamma	5.0	0.0
		dw	 0.731e-9
	HSg- + H+ = H2Sg
		log_k	6.994
		delta_h -5.30	kcal
		analytical_expression  -11.17   0.02386  3279.0
		dw	 2.1e-9
	H2O = OH- + H+
		log_k	-14.0
		delta_h 13.362	kcal
		analytical_expression	-283.971	-0.05069842	13323.0	102.24447	-1119669.0
		gamma	3.5	0.0
		dw	 5.27e-9
		delta_v -22
	CO3-2 + H+ = HCO3-
		log_k	10.329
		delta_h -3.561	kcal
		analytical_expression	107.8871	0.03252849	-5151.79	-38.92561	563713.9
		gamma	5.4	0.0
		dw	 1.18e-9
		millero 21.07 0.185 -0.002248 2.29 -0.006644 -3.667E-06
		delta_v 28
	CO3-2 + 2 H+ = CO2 + H2O
		log_k	16.681
		delta_h -5.738	kcal
		analytical_expression	464.1965	0.09344813	-26986.16	-165.75951	2248628.9
		dw	 1.92e-9
		delta_v 27
	PHASES
	Amm(g)
		Amm = Amm
		log_k	   1.7966
		analytical_expression -1.8758e+001 3.3670e-004 2.5113e+003 4.8619e+000 3.9192e+001
		t_c  405.6 # critical T, K
		p_c   111.3 # critical P, atm
		omega 0.25 #  acentric factor
		delta_v 30 # (estimated, not checked)
	CH4(g)
		CH4 = CH4
		log_k	   -2.8502
		analytical_expression -2.4027e+001 4.7146e-003 3.7227e+002 6.4264e+000 2.3362e+005
		T_c  190.6 # critical T, K
		p_c   45.40 # critical P, atm
		omega 0.008 #  acentric factor
		delta_v 33
	Mth(g)
		Mth = Mth
		log_k	   -2.8502
		analytical_expression -2.4027e+001 4.7146e-003 3.7227e+002 6.4264e+000 2.3362e+005
		T_c  190.6 # critical T, K
		p_c   45.40 # critical P, atm
		omega 0.008 #  acentric factor
		delta_v 33
	CO2(g)
		CO2 = CO2
		log_k	-1.468
		delta_h  -4.776 kcal
		analytical_expression	110.495	0.016823	-7276.04	-40.45154	669365.0
		t_c  304.2 # critical T, K
		p_c   72.80 # critical P, atm
		omega 0.225 #  acentric factor
		delta_v   31.65 # 0   0  0   0 -6.7E-08   1.56E-05
	H2(g)
		H2 = H2
		log_k	   -3.1050
		delta_h -4.184  kJ
		analytical_expression   -9.3114e+000    4.6473e-003   -4.9335e+001    1.4341e+000    1.2815e+005
		t_c  33.2 # critical T, K
		p_c   12.80 # critical P, atm
		omega 0.225 #  acentric factor
		delta_v 30 # (estimated, not checked)
	H2O(g)
		H2O = H2O
		log_k  1.506
	 delta_h -44.03 kJ
		T_c  647.3 # critical T, K
		p_c  217.60 # critical P, atm
		omega 0.344 #  acentric factor
		delta_v 0# + temperature and pressure terms
	H2S(g)
		H2S  =  H+ + HS-
		log_k	   -7.9759
		analytical_expression -9.7354e+001 -3.1576e-002 1.8285e+003 3.7440e+001 2.8560e+001
		T_c  373.2 # critical T, K
		p_c  88.20 # critical P, atm
		omega 0.1 #  acentric factor
		delta_v 30
	H2Sg(g)
		H2Sg  =  H+ + HSg-
		log_k	   -7.9759
		analytical_expression -9.7354e+001 -3.1576e-002 1.8285e+003 3.7440e+001 2.8560e+001
		T_c  373.2 # critical T, K
		p_c  88.20 # critical P, atm
		omega 0.1 #  acentric factor
		delta_v 30
	N2(g)
		N2 = N2
		log_k		 -3.1864
		analytical_expression -58.453 1.81800E-03  3199  17.909 -27460
		T_c  126.2 # critical T, K
		p_c   33.50 # critical P, atm
		omega 0.039 #  acentric factor
		delta_v 30
	O2(g)
		O2 = O2
		log_k   -2.8983
		analytical_expression -7.5001 7.8981e-003 0.0 0.0 2.0027e+005
		T_c  154.6 # critical T, K
		p_c   49.80 # critical P, atm
		omega 0.021 #  acentric factor
		delta_v 35
	Calcite
		CaCO3 = CO3-2 + Ca+2
		log_k	-8.48
		delta_h -2.297 kcal
		analytical_expression	-171.9065	-0.077993	2839.319	71.595
		delta_v -50 cm3/mol
	Strontianite
		SrCO3 = Sr+2 + CO3-2
		log_k	-9.271
		delta_h -0.400 kcal
		analytical_expression	155.0305	0.0	-7239.594	-56.58638
	END
-------------------------------------------
Beginning of initial solution calculations.
-------------------------------------------

Initial solution 1.	

-----------------------------Solution composition------------------------------

	Elements           Molality       Moles

	C(4)              1.587e+00   1.587e+00  Equilibrium with CO2(g)
	N                 1.149e-01   1.149e-01  Equilibrium with N2(g)

----------------------------Description of solution----------------------------

                                       pH  =   3.082      Charge balance
                                       pe  =   4.000    
       Specific Conductance (uS/cm, 25 oC) = 37
                          Density (g/cm3)  =   0.99705
                        Activity of water  =   0.972
                           Ionic strength  =   8.550e-04
                       Mass of water (kg)  =   1.000e+00
                 Total alkalinity (eq/kg)  =   1.296e-16
                       Total CO2 (mol/kg)  =   1.587e+00
                      Temperature (deg C)  =  25.00
                  Electrical balance (eq)  =  -1.296e-16
 Percent error, 100*(Cat-|An|)/(Cat+|An|)  =  -0.00
                               Iterations  =  13
                                  Total H  = 1.110141e+02
                                  Total O  = 5.868010e+01

----------------------------Distribution of species----------------------------

                                                   Log       Log         Log 
   Species                 Molality    Activity  Molality  Activity     Gamma

   H+                     8.550e-04   8.285e-04    -3.068    -3.082    -0.014
   OH-                    1.214e-11   1.175e-11   -10.916   -10.930    -0.014
   H2O                    5.551e+01   9.720e-01     1.744    -0.012     0.000
C(4)             1.587e+00
   CO2                    1.586e+00   1.586e+00     0.200     0.200     0.000
   HCO3-                  8.550e-04   8.276e-04    -3.068    -3.082    -0.014
   CO3-2                  5.337e-11   4.685e-11   -10.273   -10.329    -0.057
H(0)             9.716e-18
   H2                     4.858e-18   4.859e-18   -17.314   -17.313     0.000
N(0)             1.149e-01
   N2                     5.744e-02   5.745e-02    -1.241    -1.241     0.000
N(3)             0.000e+00
   NO2-                   0.000e+00   0.000e+00   -51.274   -51.288    -0.014
N(5)             0.000e+00
   NO3-                   0.000e+00   0.000e+00   -65.693   -65.707    -0.014
O(0)             0.000e+00
   O2                     0.000e+00   0.000e+00   -57.778   -57.778     0.000

------------------------------Saturation indices-------------------------------

	Phase               SI   log IAP   log K(298 K,   1 atm)

	CO2(g)            1.66**    0.20   -1.46  CO2	 Pressure 100.0 atm, phi 0.464.
	H2(g)           -14.21    -17.31   -3.10  H2
	H2O(g)           -1.52     -0.01    1.51  H2O
	N2(g)             1.94**   -1.24   -3.18  N2	 Pressure 100.0 atm, phi 0.972.
	O2(g)           -54.89    -57.78   -2.89  O2
	                      ** SI from Peng-Robinson fugacity - Delta(V) * (P - 1) / 2.3RT.

------------------
End of simulation.
------------------

------------------------------------
Reading input data for simulation 2.
------------------------------------

	GAS_PHASE 1
	 pressure 200
	 fixed_pressure
	 volume 1e9
	    N2(g) 2
	    CO2(g) 2
	SOLUTION 2
	END
-------------------------------------------
Beginning of initial solution calculations.
-------------------------------------------

Initial solution 2.	

-----------------------------Solution composition------------------------------

	Elements           Molality       Moles

	Pure water     

----------------------------Description of solution----------------------------

                                       pH  =   7.000    
                                       pe  =   4.000    
       Specific Conductance (uS/cm, 25 oC) = 0
                          Density (g/cm3)  =   0.99705
                        Activity of water  =   1.000
                           Ionic strength  =   1.001e-07
                       Mass of water (kg)  =   1.000e+00
                 Total alkalinity (eq/kg)  =   1.082e-10
                    Total carbon (mol/kg)  =   0.000e+00
                       Total CO2 (mol/kg)  =   0.000e+00
                      Temperature (deg C)  =  25.00
                  Electrical balance (eq)  =  -1.082e-10
 Percent error, 100*(Cat-|An|)/(Cat+|An|)  =  -0.05
                               Iterations  =   0
                                  Total H  = 1.110124e+02
                                  Total O  = 5.550622e+01

----------------------------Distribution of species----------------------------

                                                   Log       Log         Log 
   Species                 Molality    Activity  Molality  Activity     Gamma

   OH-                    1.002e-07   1.001e-07    -6.999    -6.999    -0.000
   H+                     1.001e-07   1.000e-07    -7.000    -7.000    -0.000
   H2O                    5.551e+01   1.000e+00     1.744     0.000     0.000
H(0)             1.416e-25
   H2                     7.079e-26   7.079e-26   -25.150   -25.150     0.000
O(0)             0.000e+00
   O2                     0.000e+00   0.000e+00   -42.080   -42.080     0.000

------------------------------Saturation indices-------------------------------

	Phase               SI   log IAP   log K(298 K,   1 atm)

	H2(g)           -22.05    -25.15   -3.10  H2
	H2O(g)           -1.51      0.00    1.51  H2O
	O2(g)           -39.19    -42.08   -2.89  O2


-----------------------------------------
Beginning of batch-reaction calculations.
-----------------------------------------

Reaction step 1.

WARNING: Maximum iterations exceeded, 100

WARNING: Numerical method failed with this set of convergence parameters.

WARNING: Trying smaller step size, pe step size 10, 5 ... 

WARNING: Maximum iterations exceeded, 200

WARNING: Numerical method failed with this set of convergence parameters.

WARNING: Trying reduced tolerance 1e-16 ...

Using solution 2.	
Using gas phase 1.	

-----------------------------------Gas phase-----------------------------------

Total pressure: 200.00      atmospheres          (Peng-Robinson calculation)
    Gas volume:   1.49e+07 liters
  Molar volume:   9.05e-02 liters/mole
   P * Vm / RT:  0.73979  (Compressibility Factor Z) 

                                                        Moles in gas
                                            ----------------------------------
Component         log P           P    phi     Initial       Final       Delta

CO2(g)             2.00   1.000e+02  0.388   8.258e+07   8.258e+07  -1.045e+00
N2(g)              2.00   1.000e+02  1.142   8.258e+07   8.258e+07  -5.969e-02

-----------------------------Solution composition------------------------------

	Elements           Molality       Moles

	C                 1.045e+00   1.045e+00
	N                 1.194e-01   1.194e-01

----------------------------Description of solution----------------------------

                                       pH  =   3.172      Charge balance
                                       pe  =   0.986      Adjusted to redox equilibrium
       Specific Conductance (uS/cm, 25 oC) = 30
                          Density (g/cm3)  =   0.99705
                        Activity of water  =   0.981
                           Ionic strength  =   6.921e-04
                       Mass of water (kg)  =   1.000e+00
                 Total alkalinity (eq/kg)  =   1.082e-10
                       Total CO2 (mol/kg)  =   1.045e+00
                      Temperature (deg C)  =  25.00
                           Pressure (atm)  = 200.00
                  Electrical balance (eq)  =  -1.082e-10
 Percent error, 100*(Cat-|An|)/(Cat+|An|)  =  -0.00
                               Iterations  =  44
                                  Total H  = 1.110124e+02
                                  Total O  = 5.759555e+01

----------------------------Distribution of species----------------------------

                                                   Log       Log         Log 
   Species                 Molality    Activity  Molality  Activity     Gamma

   H+                     6.921e-04   6.726e-04    -3.160    -3.172    -0.012
   OH-                    1.800e-11   1.747e-11   -10.745   -10.758    -0.013
   H2O                    5.551e+01   9.812e-01     1.744    -0.008     0.000
C(-4)            1.803e-09
   CH4                    1.803e-09   1.803e-09    -8.744    -8.744     0.000
C(4)             1.045e+00
   CO2                    1.044e+00   1.044e+00     0.019     0.019     0.000
   HCO3-                  6.921e-04   6.720e-04    -3.160    -3.173    -0.013
   CO3-2                  6.621e-11   5.884e-11   -10.179   -10.230    -0.051
H(0)             6.835e-12
   H2                     3.418e-12   3.418e-12   -11.466   -11.466     0.000
N(0)             1.194e-01
   N2                     5.969e-02   5.970e-02    -1.224    -1.224     0.000
N(3)             0.000e+00
   NO2-                   0.000e+00   0.000e+00   -59.939   -59.952    -0.013
N(5)             0.000e+00
   NO3-                   0.000e+00   0.000e+00   -80.201   -80.214    -0.013
O(0)             0.000e+00
   O2                     0.000e+00   0.000e+00   -69.464   -69.464     0.000

------------------------------Saturation indices-------------------------------

	Phase               SI   log IAP   log K(298 K, 200 atm)

	CH4(g)           -5.78     -8.74   -2.96  CH4
	CO2(g)            1.59**    0.02   -1.57  CO2	 Pressure 100.0 atm, phi 0.388.
	H2(g)            -8.26    -11.47   -3.21  H2
	H2O(g)           -1.51     -0.01    1.51  H2O
	N2(g)             2.06**   -1.22   -3.28  N2	 Pressure 100.0 atm, phi 1.142.
	O2(g)           -66.45    -69.46   -3.02  O2
	                      ** SI from Peng-Robinson fugacity - Delta(V) * (P - 1) / 2.3RT.

------------------
End of simulation.
------------------

------------------------------------
Reading input data for simulation 3.
------------------------------------

-----------
End of run.
-----------

