   Input file: PR_EQ_GP
  Output file: PR_EQ_GP.out
Database file: ../database/phreeqc.dat

------------------
Reading data base.
------------------

	SOLUTION_MASTER_SPECIES
	SOLUTION_SPECIES
	PHASES
	EXCHANGE_MASTER_SPECIES
	EXCHANGE_SPECIES
	SURFACE_MASTER_SPECIES
	SURFACE_SPECIES
	RATES
	END
------------------------------------
Reading input data for simulation 1.
------------------------------------

	DATABASE ../database/phreeqc.dat
	SOLUTION 1
	pH 7 charge
	N 1 N2(g) 2
	C(4) 1 CO2(g) 2
	pressure 200
	END
-------------------------------------------
Beginning of initial solution calculations.
-------------------------------------------

Initial solution 1.	

-----------------------------Solution composition------------------------------

	Elements           Molality       Moles

	C(4)              1.265e+00   1.265e+00  Equilibrium with CO2(g)
	N                 1.022e-01   1.022e-01  Equilibrium with N2(g)

----------------------------Description of solution----------------------------

                                       pH  =   3.094      Charge balance
                                       pe  =   4.000    
       Specific Conductance (uS/cm, 25 oC) = 321
                          Density (g/cm3)  =   1.02618
                        Activity of water  =   0.978
                           Ionic strength  =   8.301e-04
                       Mass of water (kg)  =   1.000e+00
                 Total alkalinity (eq/kg)  =   3.345e-10
                       Total CO2 (mol/kg)  =   1.265e+00
                      Temperature (deg C)  =  25.00
                           Pressure (atm)  = 200.00
                  Electrical balance (eq)  =  -1.891e-18
 Percent error, 100*(Cat-|An|)/(Cat+|An|)  =  -0.00
                               Iterations  =  13
                                  Total H  = 1.110141e+02
                                  Total O  = 5.803767e+01

----------------------------Distribution of species----------------------------

                                               Log       Log       Log    mole V
   Species          Molality    Activity  Molality  Activity     Gamma   cm3/mol

   H+              8.301e-04   8.048e-04    -3.081    -3.094    -0.013      0.00
   OH-             1.495e-11   1.448e-11   -10.825   -10.839    -0.014     -3.39
   H2O             5.551e+01   9.776e-01     1.744    -0.010     0.000     17.91
C(4)          1.265e+00
   CO2             1.264e+00   1.265e+00     0.102     0.102     0.000     27.30
   HCO3-           8.301e-04   8.040e-04    -3.081    -3.095    -0.014     25.20
   CO3-2           6.672e-11   5.873e-11   -10.176   -10.231    -0.055     -2.60
H(0)          7.272e-18
   H2              3.636e-18   3.637e-18   -17.439   -17.439     0.000     28.52
N(-3)         3.345e-10
   NH4+            3.345e-10   3.237e-10    -9.476    -9.490    -0.014     15.77
   NH3             2.135e-16   2.135e-16   -15.671   -15.671     0.000     24.47
N(0)          1.022e-01
   N2              5.111e-02   5.112e-02    -1.292    -1.291     0.000     29.29
N(3)          0.000e+00
   NO2-            0.000e+00   0.000e+00   -51.154   -51.168    -0.014     24.92
N(5)          0.000e+00
   NO3-            0.000e+00   0.000e+00   -65.497   -65.511    -0.014     29.18
O(0)          0.000e+00
   O2              0.000e+00   0.000e+00   -57.702   -57.702     0.000     30.12

------------------------------Saturation indices-------------------------------

	Phase               SI   log IAP   log K(298 K, 200 atm)

	CO2(g)            1.50      0.10   -1.40  CO2	 Pressure 100.0 atm, phi 0.464.
	H2(g)           -14.34    -17.44   -3.10  H2
	H2O(g)           -1.45     -0.01    1.44  H2O
	N2(g)             1.71     -1.29   -3.00  N2	 Pressure 100.0 atm, phi 0.972.
	NH3(g)          -17.55    -15.67    1.88  NH3
	O2(g)           -54.68    -57.70   -3.02  O2


------------------
End of simulation.
------------------

------------------------------------
Reading input data for simulation 2.
------------------------------------

	SOLUTION_SPECIES
		H2O + 0.01e- = H2O-0.01
		log_k -9
	GAS_PHASE 1
	 pressure 200
	 fixed_pressure
	 volume 1e5
	    N2(g) 100
	    CO2(g) 100
	USE SOLUTION 1
	KNOBS
		try 1
		debug_model
	END
-----------------------------------------
Beginning of batch-reaction calculations.
-----------------------------------------

Reaction step 1.


Iteration 1	Step_size = 100.000000
		Pe_step_size = 10.000000


A and B arrays:

0
   5.91e+01   2.48e+00   0.00e+00  -6.66e+01   1.33e+02   1.24e+01   0.00e+00   0.00e+00
   1.40e+02

1
   3.27e+05   0.00e+00  -1.29e-01  -3.27e+05   6.54e+05   3.97e-33   6.26e-01   2.96e-01
   2.26e+05

2
   0.00e+00   2.75e+04  -3.43e-04  -8.24e+04   1.65e+05   1.37e+05   1.49e-03   1.24e-02
   1.09e+06

3
   4.15e-04   2.02e-11  -9.85e-01  -4.54e-11   8.30e-04   1.62e-10   0.00e+00   0.00e+00
   0.00e+00

4
  -1.06e-02  -2.54e-05   1.95e-03  -1.97e+00  -2.14e-02  -1.27e-04  -9.88e-01  -0.00e+00
   9.88e-01

5
  -8.30e-04   4.04e-11  -9.37e-04  -1.70e-10   4.50e-10   3.23e-10  -1.25e-10   0.00e+00
   1.25e-10

6
  -1.31e+06   1.62e-10   5.14e-01   1.31e+06  -2.61e+06   1.29e-09  -2.50e+00  -1.18e+00
  -9.03e+05

7
   6.54e+05   0.00e+00  -2.42e-01  -6.54e+05   1.31e+06   1.80e-11   5.68e+01   5.91e-01
   4.51e+05

8
   0.00e+00   0.00e+00   0.00e+00   0.00e+00   0.00e+00   0.00e+00   0.00e+00  -1.00e+00
   1.10e+06


k, l, m	1	7	1
kode: 0	iter: 8	error: 0.000000e+00

solution vector:
     0  C             -8.86e-05
     1  N              9.33e+01
     2  Mu             7.87e-05
     3  A(H2O)        -5.04e-01
     4  pH             9.34e-02
     5  Hydrogen      -1.11e+01
     6  Oxygen        -1.42e-06
     7  gas moles      6.58e-01

residual vector:
     0  gas moles      0.00e+00
     1  C              0.00e+00
     2  N              0.00e+00
     3  Mu             0.00e+00
     4  A(H2O)         0.00e+00
     5  pH             0.00e+00
     6  Hydrogen       0.00e+00
     7  Oxygen         0.00e+00
     8  gas moles      1.10e+06
N         	20.257629

Sum of deltas:   105.668444
Factor:   2.0258e+01
C          old la    -10.23110   new la    -10.23111   delta  -4.37e-06   delta/c  -1.90e-06
N          old la    -65.51102   new la    -63.51102   delta   4.61e+00   delta/c   2.00e+00
Calculated mu: 8.300828e-04
Mu         old mu      0.00083   new mu      0.00083   delta   3.88e-06
A(H2O)     old la      0.29614   new la      0.28534   delta  -2.49e-02   delta/c  -1.08e-02
pH         old la     -3.09429   new la     -3.09229   delta   4.61e-03   delta/c   2.00e-03
Hydrogen   old pe     -4.00000   new pe     -4.23846   delta  -5.49e-01   delta/c  -2.38e-01
Oxygen     old MH2O   1.00e+00   new MH2O   1.00e+00   delta  -7.00e-08   10**d/c   1.00e+00
gas moles  old mol    1.10e+06   new mol    1.10e+06   delta   3.25e-02
C          old mole   5.52e+05   new mole   5.52e+05   delta   0.00e+00
N          old mole   1.10e+06   new mole   1.10e+06   delta   0.00e+00
pH         old mole  -1.89e-18   new mole  -1.89e-18   delta   0.00e+00
Hydrogen   old mole  -2.21e+06   new mole  -2.21e+06   delta   0.00e+00
Oxygen     old mole   1.11e+06   new mole   1.11e+06   delta   0.00e+00

Iteration 2	Step_size = 100.000000
		Pe_step_size = 10.000000


A and B arrays:

0
   6.12e+01   6.29e+01   0.00e+00  -6.12e+01   1.22e+02   0.00e+00   0.00e+00   0.00e+00
   7.59e+01

1
   3.38e+05   0.00e+00  -1.34e-01  -3.38e+05   6.76e+05   5.54e-35   6.48e-01   3.06e-01
   2.14e+05

2
   0.00e+00   6.95e+05  -1.74e-02   0.00e+00   2.26e-10   1.69e-10   7.55e-02   6.29e-01
   4.10e+05

3
   4.17e-04   1.41e-11  -9.85e-01   1.48e-11   8.34e-04   8.46e-11  -2.30e-20   0.00e+00
   2.30e-20

4
  -1.10e-02  -6.42e-04   2.18e-03  -1.92e+00  -2.20e-02  -3.17e-12  -9.41e-01  -0.00e+00
   9.41e-01

5
  -8.34e-04   2.82e-11  -9.41e-04  -4.69e-11  -8.96e-10   1.69e-10  -1.27e-09   0.00e+00
   1.27e-09

6
  -1.35e+06   1.13e-10   5.34e-01   1.35e+06  -2.70e+06   6.77e-10  -2.59e+00  -1.22e+00
  -8.58e+05

7
   6.76e+05   0.00e+00  -2.52e-01  -6.76e+05   1.35e+06   1.75e-11   5.68e+01   6.12e-01
   4.29e+05

8
   0.00e+00   0.00e+00   0.00e+00   0.00e+00   0.00e+00   0.00e+00   0.00e+00  -1.00e+00
   1.10e+06


k, l, m	1	7	1
kode: 2	iter: 8	error: 0.000000e+00

solution vector:
     0  C             -6.93e-05
     1  N              5.91e-01
     2  Mu             6.03e-05
     3  A(H2O)        -4.91e-01
     4  pH             7.13e-02
     5  Hydrogen       1.55e+00
     6  Oxygen        -1.09e-06
     7  gas moles      2.68e-01

residual vector:
     0  gas moles      0.00e+00
     1  C              0.00e+00
     2  N              0.00e+00
     3  Mu             0.00e+00
     4  A(H2O)         0.00e+00
     5  pH             0.00e+00
     6  Hydrogen       0.00e+00
     7  Oxygen         0.00e+00
     8  gas moles      1.10e+06
Ineq had infeasible solution, kode 2, iteration 2

A and B arrays:

0
   6.12e+01   6.29e+01   0.00e+00  -6.12e+01   1.22e+02   0.00e+00   0.00e+00   0.00e+00
   7.59e+01

1
   3.38e+05   0.00e+00  -1.34e-01  -3.38e+05   6.76e+05   5.54e-35   6.48e-01   3.06e-01
   2.14e+05

2
   0.00e+00   6.95e+05  -1.74e-02   0.00e+00   2.26e-10   1.69e-10   7.55e-02   6.29e-01
   4.10e+05

3
   4.17e-04   1.41e-11  -9.85e-01   1.48e-11   8.34e-04   8.46e-11  -2.30e-20   0.00e+00
   2.30e-20

4
  -1.10e-02  -6.42e-04   2.18e-03  -1.92e+00  -2.20e-02  -3.17e-12  -9.41e-01  -0.00e+00
   9.41e-01

5
  -8.34e-04   2.82e-11  -9.41e-04  -4.69e-11  -8.96e-10   1.69e-10  -1.27e-09   0.00e+00
   1.27e-09

6
  -1.35e+06   1.13e-10   5.34e-01   1.35e+06  -2.70e+06   6.77e-10  -2.59e+00  -1.22e+00
  -8.58e+05

7
   6.76e+05   0.00e+00  -2.52e-01  -6.76e+05   1.35e+06   1.75e-11   5.68e+01   6.12e-01
   4.29e+05

8
   0.00e+00   0.00e+00   0.00e+00   0.00e+00   0.00e+00   0.00e+00   0.00e+00  -1.00e+00
   1.10e+06


k, l, m	1	7	1
kode: 1	iter: 7	error: 3.007852e-05

solution vector:
     0  C             -6.93e-05
     1  N              5.91e-01
     2  Mu             6.03e-05
     3  A(H2O)        -4.91e-01
     4  pH             7.13e-02
     5  Hydrogen       1.55e+00
     6  Oxygen        -1.09e-06
     7  gas moles      0.00e+00

residual vector:
     0  gas moles     -3.01e-05
     1  C              0.00e+00
     2  N              0.00e+00
     3  Mu             0.00e+00
     4  A(H2O)         0.00e+00
     5  pH             0.00e+00
     6  Hydrogen       0.00e+00
     7  Oxygen         0.00e+00
     8  gas moles      1.10e+06

Sum of deltas:     2.705551
Factor:   1.0000e+00
C          old la    -10.23111   new la    -10.23114   delta  -6.93e-05   delta/c  -3.01e-05
N          old la     -1.42306   new la     -1.16660   delta   5.91e-01   delta/c   2.56e-01
Calculated mu: 8.339762e-04
Mu         old mu      0.00083   new mu      0.00089   delta   6.03e-05
A(H2O)     old la      0.28534   new la      0.07190   delta  -4.91e-01   delta/c  -2.13e-01
pH         old la     -3.09229   new la     -3.06131   delta   7.13e-02   delta/c   3.10e-02
Hydrogen   old pe     -4.23846   new pe     -3.56440   delta   1.55e+00   delta/c   6.74e-01
Oxygen     old MH2O   1.00e+00   new MH2O   1.00e+00   delta  -1.09e-06   10**d/c   1.00e+00
gas moles  old mol    1.10e+06   new mol    1.10e+06   delta   0.00e+00
C          old mole   5.52e+05   new mole   5.52e+05   delta   0.00e+00
N          old mole   1.10e+06   new mole   1.10e+06   delta   0.00e+00
pH         old mole  -1.89e-18   new mole  -1.89e-18   delta   0.00e+00
Hydrogen   old mole  -2.21e+06   new mole  -2.21e+06   delta   0.00e+00
Oxygen     old mole   1.11e+06   new mole   1.11e+06   delta   0.00e+00

Iteration 3	Step_size = 100.000000
		Pe_step_size = 10.000000


A and B arrays:

0
   1.15e+02   1.13e+02   0.00e+00  -1.15e+02   2.31e+02   0.00e+00   0.00e+00   0.00e+00
  -2.89e+01

1
   6.37e+05   0.00e+00  -1.34e-01  -6.37e+05   1.27e+06   1.22e-28   1.22e+00   5.77e-01
  -8.49e+04

2
   0.00e+00   1.25e+06  -1.74e-02   0.00e+00   4.25e-08   3.19e-08   1.36e-01   1.13e+00
  -1.49e+05

3
   4.48e-04   2.65e-09  -9.86e-01   8.43e-12   8.97e-04   1.59e-08   2.23e-06   0.00e+00
  -2.23e-06

4
  -2.07e-02  -1.16e-03   2.20e-03  -1.16e+00  -4.15e-02  -5.42e-10  -2.02e-01  -0.00e+00
   2.02e-01

5
  -8.97e-04   5.31e-09  -9.35e-04  -2.76e-11   2.36e-08   3.19e-08  -8.46e-09   0.00e+00
   8.46e-09

6
  -2.55e+06   2.12e-08   5.36e-01   2.55e+06  -5.10e+06   1.27e-07  -4.88e+00  -2.31e+00
   3.40e+05

7
   1.27e+06   0.00e+00  -2.54e-01  -1.27e+06   2.55e+06   1.09e-11   5.79e+01   1.15e+00
  -1.70e+05

8
   0.00e+00   0.00e+00   0.00e+00   0.00e+00   0.00e+00   0.00e+00   0.00e+00  -1.00e+00
   1.10e+06


k, l, m	1	7	1
kode: 0	iter: 8	error: 0.000000e+00

solution vector:
     0  C              1.23e-04
     1  N             -1.19e-01
     2  Mu            -1.35e-04
     3  A(H2O)        -1.69e-01
     4  pH            -1.51e-01
     5  Hydrogen      -1.02e-01
     6  Oxygen         2.43e-06
     7  gas moles      1.45e-01

residual vector:
     0  gas moles      0.00e+00
     1  C              0.00e+00
     2  N              0.00e+00
     3  Mu             0.00e+00
     4  A(H2O)         0.00e+00
     5  pH             0.00e+00
     6  Hydrogen       0.00e+00
     7  Oxygen         0.00e+00
     8  gas moles      1.10e+06

Sum of deltas:     0.686499
Factor:   1.0000e+00
C          old la    -10.23114   new la    -10.23108   delta   1.23e-04   delta/c   5.34e-05
N          old la     -1.16660   new la     -1.21819   delta  -1.19e-01   delta/c  -5.16e-02
Calculated mu: 8.965567e-04
Mu         old mu      0.00089   new mu      0.00076   delta  -1.35e-04
A(H2O)     old la      0.07190   new la     -0.00136   delta  -1.69e-01   delta/c  -7.33e-02
pH         old la     -3.06131   new la     -3.12690   delta  -1.51e-01   delta/c  -6.56e-02
Hydrogen   old pe     -3.56440   new pe     -3.60887   delta  -1.02e-01   delta/c  -4.45e-02
Oxygen     old MH2O   1.00e+00   new MH2O   1.00e+00   delta   2.43e-06   10**d/c   1.00e+00
gas moles  old mol    1.10e+06   new mol    1.10e+06   delta   1.45e-01
C          old mole   5.52e+05   new mole   5.52e+05   delta   0.00e+00
N          old mole   1.10e+06   new mole   1.10e+06   delta   0.00e+00
pH         old mole  -1.89e-18   new mole  -1.89e-18   delta   0.00e+00
Hydrogen   old mole  -2.21e+06   new mole  -2.21e+06   delta   0.00e+00
Oxygen     old mole   1.11e+06   new mole   1.11e+06   delta   0.00e+00

Iteration 4	Step_size = 100.000000
		Pe_step_size = 10.000000


A and B arrays:

0
   1.01e+02   1.00e+02   0.00e+00  -1.01e+02   2.03e+02   0.00e+00   0.00e+00   0.00e+00
  -1.74e+00

1
   5.60e+05   0.00e+00  -2.64e-01  -5.60e+05   1.12e+06   1.97e-29   1.07e+00   5.07e-01
  -7.38e+03

2
   0.00e+00   1.11e+06  -3.14e-02   0.00e+00   1.60e-08   1.20e-08   1.21e-01   1.00e+00
  -4.49e+03

3
   3.85e-04   1.00e-09  -9.83e-01   8.25e-12   7.69e-04   6.02e-09   9.77e-06   0.00e+00
  -9.77e-06

4
  -1.82e-02  -1.03e-03   4.47e-03  -9.79e-01  -3.63e-02  -2.05e-10  -1.61e-02  -0.00e+00
   1.61e-02

5
  -7.69e-04   2.01e-09  -1.02e-03  -2.56e-11   5.98e-08   1.20e-08   4.76e-08   0.00e+00
  -4.76e-08

6
  -2.24e+06   8.02e-09   1.05e+00   2.24e+06  -4.48e+06   4.81e-08  -4.27e+00  -2.03e+00
   2.95e+04

7
   1.12e+06   0.00e+00  -5.10e-01  -1.12e+06   2.24e+06   9.17e-12   5.76e+01   1.01e+00
  -1.48e+04

8
   0.00e+00   0.00e+00   0.00e+00   0.00e+00   0.00e+00   0.00e+00   0.00e+00  -1.00e+00
   1.10e+06


k, l, m	1	7	1
kode: 2	iter: 7	error: 7.086072e+01

solution vector:
     0  C              2.27e-04
     1  N             -3.55e-01
     2  Mu            -1.36e-04
     3  A(H2O)        -9.11e-03
     4  pH            -1.87e-01
     5  Hydrogen       0.00e+00
     6  Oxygen         2.45e-06
     7  gas moles      3.88e+05

residual vector:
     0  gas moles      7.09e+01
     1  C              0.00e+00
     2  N              0.00e+00
     3  Mu             0.00e+00
     4  A(H2O)         0.00e+00
     5  pH             0.00e+00
     6  Hydrogen       0.00e+00
     7  Oxygen         0.00e+00
     8  gas moles      1.49e+06
Ineq had infeasible solution, kode 2, iteration 4

A and B arrays:

0
   1.01e+02   1.00e+02   0.00e+00  -1.01e+02   2.03e+02   0.00e+00   0.00e+00   0.00e+00
  -1.74e+00

1
   5.60e+05   0.00e+00  -2.64e-01  -5.60e+05   1.12e+06   1.97e-29   1.07e+00   5.07e-01
  -7.38e+03

2
   0.00e+00   1.11e+06  -3.14e-02   0.00e+00   1.60e-08   1.20e-08   1.21e-01   1.00e+00
  -4.49e+03

3
   3.85e-04   1.00e-09  -9.83e-01   8.25e-12   7.69e-04   6.02e-09   9.77e-06   0.00e+00
  -9.77e-06

4
  -1.82e-02  -1.03e-03   4.47e-03  -9.79e-01  -3.63e-02  -2.05e-10  -1.61e-02  -0.00e+00
   1.61e-02

5
  -7.69e-04   2.01e-09  -1.02e-03  -2.56e-11   5.98e-08   1.20e-08   4.76e-08   0.00e+00
  -4.76e-08

6
  -2.24e+06   8.02e-09   1.05e+00   2.24e+06  -4.48e+06   4.81e-08  -4.27e+00  -2.03e+00
   2.95e+04

7
   1.12e+06   0.00e+00  -5.10e-01  -1.12e+06   2.24e+06   9.17e-12   5.76e+01   1.01e+00
  -1.48e+04

8
   0.00e+00   0.00e+00   0.00e+00   0.00e+00   0.00e+00   0.00e+00   0.00e+00  -1.00e+00
   1.10e+06


k, l, m	1	7	1
kode: 0	iter: 8	error: 0.000000e+00

solution vector:
     0  C              5.82e-05
     1  N             -4.05e-03
     2  Mu            -1.43e-06
     3  A(H2O)        -1.59e-02
     4  pH            -1.46e-02
     5  Hydrogen      -2.87e-01
     6  Oxygen         2.57e-08
     7  gas moles      2.43e-02

residual vector:
     0  gas moles      0.00e+00
     1  C              0.00e+00
     2  N              0.00e+00
     3  Mu             0.00e+00
     4  A(H2O)         0.00e+00
     5  pH             0.00e+00
     6  Hydrogen       0.00e+00
     7  Oxygen         0.00e+00
     8  gas moles      1.10e+06

Sum of deltas:     0.345559
Factor:   1.0000e+00
C          old la    -10.23108   new la    -10.23106   delta   5.82e-05   delta/c   2.53e-05
N          old la     -1.21819   new la     -1.21995   delta  -4.05e-03   delta/c  -1.76e-03
Calculated mu: 7.690543e-04
Mu         old mu      0.00076   new mu      0.00076   delta  -1.43e-06
A(H2O)     old la     -0.00136   new la     -0.00825   delta  -1.59e-02   delta/c  -6.89e-03
pH         old la     -3.12690   new la     -3.13323   delta  -1.46e-02   delta/c  -6.32e-03
Hydrogen   old pe     -3.60887   new pe     -3.73338   delta  -2.87e-01   delta/c  -1.25e-01
Oxygen     old MH2O   1.00e+00   new MH2O   1.00e+00   delta   2.57e-08   10**d/c   1.00e+00
gas moles  old mol    1.10e+06   new mol    1.10e+06   delta   2.43e-02
C          old mole   5.52e+05   new mole   5.52e+05   delta   0.00e+00
N          old mole   1.10e+06   new mole   1.10e+06   delta   0.00e+00
pH         old mole  -1.89e-18   new mole  -1.89e-18   delta   0.00e+00
Hydrogen   old mole  -2.21e+06   new mole  -2.21e+06   delta   0.00e+00
Oxygen     old mole   1.11e+06   new mole   1.11e+06   delta   0.00e+00

Iteration 5	Step_size = 100.000000
		Pe_step_size = 10.000000


A and B arrays:

0
   9.98e+01   1.00e+02   0.00e+00  -9.98e+01   2.00e+02   0.00e+00   0.00e+00   0.00e+00
  -1.18e-02

1
   5.52e+05   0.00e+00  -2.31e-01  -5.52e+05   1.10e+06   1.80e-30   1.05e+00   4.99e-01
   8.29e+02

2
   0.00e+00   1.11e+06  -2.79e-02   0.00e+00   6.39e-09   4.79e-09   1.21e-01   1.00e+00
  -1.79e+03

3
   3.79e-04   4.00e-10  -9.86e-01   8.24e-12   7.58e-04   2.40e-09   8.49e-08   0.00e+00
  -8.49e-08

4
  -1.79e-02  -1.02e-03   3.93e-03  -9.63e-01  -3.58e-02  -8.17e-11  -1.26e-04  -0.00e+00
   1.26e-04

5
  -7.58e-04   7.99e-10  -8.75e-04  -2.54e-11   7.08e-09   4.79e-09   2.11e-09   0.00e+00
  -2.11e-09

6
  -2.21e+06   3.20e-09   9.23e-01   2.21e+06  -4.41e+06   1.92e-08  -4.22e+00  -2.00e+00
  -3.32e+03

7
   1.10e+06   0.00e+00  -4.47e-01  -1.10e+06   2.21e+06   9.00e-12   5.76e+01   9.98e-01
   1.66e+03

8
   0.00e+00   0.00e+00   0.00e+00   0.00e+00   0.00e+00   0.00e+00   0.00e+00  -1.00e+00
   1.10e+06


k, l, m	1	7	1
kode: 1	iter: 7	error: 2.473175e-07

solution vector:
     0  C              3.52e-07
     1  N             -1.62e-03
     2  Mu             6.04e-07
     3  A(H2O)        -1.55e-04
     4  pH             6.74e-04
     5  Hydrogen      -2.75e-01
     6  Oxygen        -1.09e-08
     7  gas moles      0.00e+00

residual vector:
     0  gas moles      2.47e-07
     1  C              0.00e+00
     2  N              0.00e+00
     3  Mu             0.00e+00
     4  A(H2O)         0.00e+00
     5  pH             0.00e+00
     6  Hydrogen       0.00e+00
     7  Oxygen         0.00e+00
     8  gas moles      1.10e+06
Ineq had infeasible solution, kode 0, iteration 5

Sum of deltas:     0.277288
Factor:   1.0000e+00
C          old la    -10.23106   new la    -10.23106   delta   3.52e-07   delta/c   1.53e-07
N          old la     -1.21995   new la     -1.22065   delta  -1.62e-03   delta/c  -7.02e-04
Calculated mu: 7.579402e-04
Mu         old mu      0.00076   new mu      0.00076   delta   6.04e-07
A(H2O)     old la     -0.00825   new la     -0.00832   delta  -1.55e-04   delta/c  -6.72e-05
pH         old la     -3.13323   new la     -3.13293   delta   6.74e-04   delta/c   2.93e-04
Hydrogen   old pe     -3.73338   new pe     -3.85275   delta  -2.75e-01   delta/c  -1.19e-01
Oxygen     old MH2O   1.00e+00   new MH2O   1.00e+00   delta  -1.09e-08   10**d/c   1.00e+00
gas moles  old mol    1.10e+06   new mol    1.10e+06   delta   0.00e+00
C          old mole   5.52e+05   new mole   5.52e+05   delta   0.00e+00
N          old mole   1.10e+06   new mole   1.10e+06   delta   0.00e+00
pH         old mole  -1.89e-18   new mole  -1.89e-18   delta   0.00e+00
Hydrogen   old mole  -2.21e+06   new mole  -2.21e+06   delta   0.00e+00
Oxygen     old mole   1.11e+06   new mole   1.11e+06   delta   0.00e+00

Iteration 6	Step_size = 100.000000
		Pe_step_size = 10.000000


A and B arrays:

0
   9.97e+01   1.00e+02   0.00e+00  -9.97e+01   1.99e+02   0.00e+00   0.00e+00   0.00e+00
  -1.78e-03

1
   5.51e+05   0.00e+00  -2.28e-01  -5.51e+05   1.10e+06   2.01e-31   1.06e+00   4.99e-01
   1.47e+03

2
   0.00e+00   1.11e+06  -2.77e-02   0.00e+00   2.81e-09   2.11e-09   1.20e-01   1.00e+00
  -2.96e+03

3
   3.79e-04   1.76e-10  -9.86e-01   8.23e-12   7.58e-04   1.05e-09   2.60e-10   0.00e+00
  -2.60e-10

4
  -1.79e-02  -1.02e-03   3.88e-03  -9.63e-01  -3.59e-02  -3.60e-11  -3.34e-08  -0.00e+00
   3.34e-08

5
  -7.58e-04   3.51e-10  -8.63e-04  -2.54e-11   2.71e-09   2.11e-09   4.25e-10   0.00e+00
  -4.25e-10

6
  -2.20e+06   1.40e-09   9.11e-01   2.20e+06  -4.41e+06   8.42e-09  -4.22e+00  -1.99e+00
  -5.89e+03

7
   1.10e+06   0.00e+00  -4.41e-01  -1.10e+06   2.20e+06   8.98e-12   5.76e+01   9.97e-01
   2.95e+03

8
   0.00e+00   0.00e+00   0.00e+00   0.00e+00   0.00e+00   0.00e+00   0.00e+00  -1.00e+00
   1.10e+06


k, l, m	1	7	1
kode: 1	iter: 7	error: 7.287314e-07

solution vector:
     0  C             -1.22e-06
     1  N             -2.68e-03
     2  Mu             1.01e-06
     3  A(H2O)        -4.61e-05
     4  pH             1.31e-03
     5  Hydrogen      -2.29e-01
     6  Oxygen        -1.82e-08
     7  gas moles      0.00e+00

residual vector:
     0  gas moles      7.29e-07
     1  C              0.00e+00
     2  N              0.00e+00
     3  Mu             0.00e+00
     4  A(H2O)         0.00e+00
     5  pH             0.00e+00
     6  Hydrogen       0.00e+00
     7  Oxygen         0.00e+00
     8  gas moles      1.10e+06
Ineq had infeasible solution, kode 0, iteration 6

Sum of deltas:     0.232915
Factor:   1.0000e+00
C          old la    -10.23106   new la    -10.23106   delta  -1.22e-06   delta/c  -5.30e-07
N          old la     -1.22065   new la     -1.22181   delta  -2.68e-03   delta/c  -1.16e-03
Calculated mu: 7.584595e-04
Mu         old mu      0.00076   new mu      0.00076   delta   1.01e-06
A(H2O)     old la     -0.00832   new la     -0.00834   delta  -4.61e-05   delta/c  -2.00e-05
pH         old la     -3.13293   new la     -3.13236   delta   1.31e-03   delta/c   5.71e-04
Hydrogen   old pe     -3.85275   new pe     -3.95215   delta  -2.29e-01   delta/c  -9.94e-02
Oxygen     old MH2O   1.00e+00   new MH2O   1.00e+00   delta  -1.82e-08   10**d/c   1.00e+00
gas moles  old mol    1.10e+06   new mol    1.10e+06   delta   0.00e+00
C          old mole   5.52e+05   new mole   5.52e+05   delta   0.00e+00
N          old mole   1.10e+06   new mole   1.10e+06   delta   0.00e+00
pH         old mole  -1.89e-18   new mole  -1.89e-18   delta   0.00e+00
Hydrogen   old mole  -2.21e+06   new mole  -2.21e+06   delta   0.00e+00
Oxygen     old mole   1.11e+06   new mole   1.11e+06   delta   0.00e+00

Iteration 7	Step_size = 100.000000
		Pe_step_size = 10.000000


A and B arrays:

0
   1.00e+02   1.00e+02   0.00e+00  -1.00e+02   2.00e+02   0.00e+00   0.00e+00   0.00e+00
  -6.18e-04

1
   5.52e+05   0.00e+00  -2.28e-01  -5.52e+05   1.10e+06   3.27e-32   1.06e+00   5.00e-01
   2.64e+02

2
   0.00e+00   1.11e+06  -2.77e-02   0.00e+00   1.42e-09   1.06e-09   1.20e-01   1.00e+00
  -5.34e+02

3
   3.80e-04   8.87e-11  -9.86e-01   8.22e-12   7.59e-04   5.32e-10   9.74e-10   0.00e+00
  -9.74e-10

4
  -1.80e-02  -1.02e-03   3.88e-03  -9.63e-01  -3.60e-02  -1.82e-11  -8.40e-08  -0.00e+00
   8.40e-08

5
  -7.59e-04   1.77e-10  -8.63e-04  -2.53e-11   9.10e-10   1.06e-09  -3.29e-10   0.00e+00
   3.29e-10

6
  -2.21e+06   7.09e-10   9.12e-01   2.21e+06  -4.42e+06   4.26e-09  -4.23e+00  -2.00e+00
  -1.06e+03

7
   1.10e+06   0.00e+00  -4.42e-01  -1.10e+06   2.21e+06   8.96e-12   5.76e+01   1.00e+00
   5.28e+02

8
   0.00e+00   0.00e+00   0.00e+00   0.00e+00   0.00e+00   0.00e+00   0.00e+00  -1.00e+00
   1.10e+06


k, l, m	1	7	1
kode: 1	iter: 7	error: 8.158196e-07

solution vector:
     0  C             -7.84e-07
     1  N             -4.83e-04
     2  Mu             1.82e-07
     3  A(H2O)        -8.34e-06
     4  pH             2.35e-04
     5  Hydrogen      -1.03e-01
     6  Oxygen        -3.27e-09
     7  gas moles      0.00e+00

residual vector:
     0  gas moles      8.16e-07
     1  C              0.00e+00
     2  N              0.00e+00
     3  Mu             0.00e+00
     4  A(H2O)         0.00e+00
     5  pH             0.00e+00
     6  Hydrogen       0.00e+00
     7  Oxygen         0.00e+00
     8  gas moles      1.10e+06
Ineq had infeasible solution, kode 0, iteration 7

Sum of deltas:     0.103935
Factor:   1.0000e+00
C          old la    -10.23106   new la    -10.23106   delta  -7.84e-07   delta/c  -3.40e-07
N          old la     -1.22181   new la     -1.22202   delta  -4.83e-04   delta/c  -2.10e-04
Calculated mu: 7.594705e-04
Mu         old mu      0.00076   new mu      0.00076   delta   1.82e-07
A(H2O)     old la     -0.00834   new la     -0.00835   delta  -8.34e-06   delta/c  -3.62e-06
pH         old la     -3.13236   new la     -3.13226   delta   2.35e-04   delta/c   1.02e-04
Hydrogen   old pe     -3.95215   new pe     -3.99697   delta  -1.03e-01   delta/c  -4.48e-02
Oxygen     old MH2O   1.00e+00   new MH2O   1.00e+00   delta  -3.27e-09   10**d/c   1.00e+00
gas moles  old mol    1.10e+06   new mol    1.10e+06   delta   0.00e+00
C          old mole   5.52e+05   new mole   5.52e+05   delta   0.00e+00
N          old mole   1.10e+06   new mole   1.10e+06   delta   0.00e+00
pH         old mole  -1.89e-18   new mole  -1.89e-18   delta   0.00e+00
Hydrogen   old mole  -2.21e+06   new mole  -2.21e+06   delta   0.00e+00
Oxygen     old mole   1.11e+06   new mole   1.11e+06   delta   0.00e+00

Iteration 8	Step_size = 100.000000
		Pe_step_size = 10.000000


A and B arrays:

0
   1.00e+02   9.99e+01   0.00e+00  -1.00e+02   2.00e+02   0.00e+00   0.00e+00   0.00e+00
  -4.11e-04

1
   5.53e+05   0.00e+00  -2.29e-01  -5.53e+05   1.11e+06   1.44e-32   1.06e+00   5.00e-01
  -5.25e+02

2
   0.00e+00   1.10e+06  -2.76e-02   0.00e+00   1.04e-09   7.81e-10   1.20e-01   9.99e-01
   1.04e+03

3
   3.80e-04   6.51e-11  -9.86e-01   8.22e-12   7.60e-04   3.91e-10   3.24e-11   0.00e+00
  -3.24e-11

4
  -1.80e-02  -1.02e-03   3.89e-03  -9.63e-01  -3.60e-02  -1.34e-11  -2.20e-09  -0.00e+00
   2.20e-09

5
  -7.60e-04   1.30e-10  -8.65e-04  -2.53e-11   9.71e-10   7.81e-10   1.52e-11   0.00e+00
  -1.52e-11

6
  -2.21e+06   5.21e-10   9.15e-01   2.21e+06  -4.42e+06   3.13e-09  -4.24e+00  -2.00e+00
   2.10e+03

7
   1.11e+06   0.00e+00  -4.43e-01  -1.11e+06   2.21e+06   8.95e-12   5.76e+01   1.00e+00
  -1.05e+03

8
   0.00e+00   0.00e+00   0.00e+00   0.00e+00   0.00e+00   0.00e+00   0.00e+00  -1.00e+00
   1.10e+06


k, l, m	1	7	1
kode: 1	iter: 7	error: 6.443923e-07

solution vector:
     0  C              6.40e-07
     1  N              9.46e-04
     2  Mu            -3.59e-07
     3  A(H2O)         1.64e-05
     4  pH            -4.66e-04
     5  Hydrogen       2.06e-01
     6  Oxygen         6.46e-09
     7  gas moles      0.00e+00

residual vector:
     0  gas moles      6.44e-07
     1  C              0.00e+00
     2  N              0.00e+00
     3  Mu             0.00e+00
     4  A(H2O)         0.00e+00
     5  pH             0.00e+00
     6  Hydrogen       0.00e+00
     7  Oxygen         0.00e+00
     8  gas moles      1.10e+06
Ineq had infeasible solution, kode 0, iteration 8

Sum of deltas:     0.207122
Factor:   1.0000e+00
C          old la    -10.23106   new la    -10.23106   delta   6.40e-07   delta/c   2.78e-07
N          old la     -1.22202   new la     -1.22161   delta   9.46e-04   delta/c   4.11e-04
Calculated mu: 7.596512e-04
Mu         old mu      0.00076   new mu      0.00076   delta  -3.59e-07
A(H2O)     old la     -0.00835   new la     -0.00834   delta   1.64e-05   delta/c   7.13e-06
pH         old la     -3.13226   new la     -3.13246   delta  -4.66e-04   delta/c  -2.03e-04
Hydrogen   old pe     -3.99697   new pe     -3.90764   delta   2.06e-01   delta/c   8.93e-02
Oxygen     old MH2O   1.00e+00   new MH2O   1.00e+00   delta   6.46e-09   10**d/c   1.00e+00
gas moles  old mol    1.10e+06   new mol    1.10e+06   delta   0.00e+00
C          old mole   5.52e+05   new mole   5.52e+05   delta   0.00e+00
N          old mole   1.10e+06   new mole   1.10e+06   delta   0.00e+00
pH         old mole  -1.89e-18   new mole  -1.89e-18   delta   0.00e+00
Hydrogen   old mole  -2.21e+06   new mole  -2.21e+06   delta   0.00e+00
Oxygen     old mole   1.11e+06   new mole   1.11e+06   delta   0.00e+00

Iteration 9	Step_size = 100.000000
		Pe_step_size = 10.000000


A and B arrays:

0
   1.00e+02   9.99e+01   0.00e+00  -1.00e+02   2.00e+02   0.00e+00   0.00e+00   0.00e+00
  -9.85e-05

1
   5.53e+05   0.00e+00  -2.29e-01  -5.53e+05   1.11e+06   7.40e-32   1.06e+00   5.00e-01
  -3.42e+02

2
   0.00e+00   1.10e+06  -2.76e-02   0.00e+00   1.93e-09   1.45e-09   1.20e-01   9.99e-01
   6.82e+02

3
   3.80e-04   1.21e-10  -9.86e-01   8.23e-12   7.59e-04   7.23e-10   1.14e-10   0.00e+00
  -1.14e-10

4
  -1.80e-02  -1.02e-03   3.90e-03  -9.63e-01  -3.60e-02  -2.47e-11  -8.68e-09  -0.00e+00
   8.68e-09

5
  -7.59e-04   2.41e-10  -8.65e-04  -2.53e-11   1.68e-09   1.45e-09   6.14e-11   0.00e+00
  -6.14e-11

6
  -2.21e+06   9.64e-10   9.15e-01   2.21e+06  -4.42e+06   5.78e-09  -4.23e+00  -2.00e+00
   1.37e+03

7
   1.11e+06   0.00e+00  -4.44e-01  -1.11e+06   2.21e+06   8.97e-12   5.76e+01   1.00e+00
  -6.84e+02

8
   0.00e+00   0.00e+00   0.00e+00   0.00e+00   0.00e+00   0.00e+00   0.00e+00  -1.00e+00
   1.10e+06


k, l, m	1	7	1
kode: 0	iter: 8	error: 0.000000e+00

solution vector:
     0  C              1.70e-07
     1  N              6.18e-04
     2  Mu            -2.34e-07
     3  A(H2O)         1.07e-05
     4  pH            -3.04e-04
     5  Hydrogen      -9.29e-02
     6  Oxygen         4.22e-09
     7  gas moles     -2.94e-03

residual vector:
     0  gas moles      0.00e+00
     1  C              0.00e+00
     2  N              0.00e+00
     3  Mu             0.00e+00
     4  A(H2O)         0.00e+00
     5  pH             0.00e+00
     6  Hydrogen       0.00e+00
     7  Oxygen         0.00e+00
     8  gas moles      1.10e+06

Sum of deltas:     0.096736
Factor:   1.0000e+00
C          old la    -10.23106   new la    -10.23106   delta   1.70e-07   delta/c   7.38e-08
N          old la     -1.22161   new la     -1.22134   delta   6.18e-04   delta/c   2.68e-04
Calculated mu: 7.592922e-04
Mu         old mu      0.00076   new mu      0.00076   delta  -2.34e-07
A(H2O)     old la     -0.00834   new la     -0.00833   delta   1.07e-05   delta/c   4.64e-06
pH         old la     -3.13246   new la     -3.13259   delta  -3.04e-04   delta/c  -1.32e-04
Hydrogen   old pe     -3.90764   new pe     -3.94797   delta  -9.29e-02   delta/c  -4.03e-02
Oxygen     old MH2O   1.00e+00   new MH2O   1.00e+00   delta   4.22e-09   10**d/c   1.00e+00
gas moles  old mol    1.10e+06   new mol    1.10e+06   delta  -2.94e-03
C          old mole   5.52e+05   new mole   5.52e+05   delta   0.00e+00
N          old mole   1.10e+06   new mole   1.10e+06   delta   0.00e+00
pH         old mole  -1.89e-18   new mole  -1.89e-18   delta   0.00e+00
Hydrogen   old mole  -2.21e+06   new mole  -2.21e+06   delta   0.00e+00
Oxygen     old mole   1.11e+06   new mole   1.11e+06   delta   0.00e+00

Iteration 10	Step_size = 100.000000
		Pe_step_size = 10.000000


A and B arrays:

0
   1.00e+02   1.00e+02   0.00e+00  -1.00e+02   2.00e+02   0.00e+00   0.00e+00   0.00e+00
  -6.26e-05

1
   5.52e+05   0.00e+00  -2.29e-01  -5.52e+05   1.10e+06   3.51e-32   1.06e+00   5.00e-01
   7.86e+01

2
   0.00e+00   1.11e+06  -2.76e-02   0.00e+00   1.46e-09   1.09e-09   1.20e-01   1.00e+00
  -1.58e+02

3
   3.80e-04   9.11e-11  -9.86e-01   8.23e-12   7.59e-04   5.47e-10   4.59e-11   0.00e+00
  -4.59e-11

4
  -1.80e-02  -1.02e-03   3.89e-03  -9.63e-01  -3.59e-02  -1.87e-11  -3.68e-09  -0.00e+00
   3.68e-09

5
  -7.59e-04   1.82e-10  -8.64e-04  -2.53e-11   1.29e-09   1.09e-09   1.71e-11   0.00e+00
  -1.71e-11

6
  -2.21e+06   7.29e-10   9.14e-01   2.21e+06  -4.42e+06   4.37e-09  -4.23e+00  -2.00e+00
  -3.15e+02

7
   1.10e+06   0.00e+00  -4.43e-01  -1.10e+06   2.21e+06   8.96e-12   5.76e+01   1.00e+00
   1.57e+02

8
   0.00e+00   0.00e+00   0.00e+00   0.00e+00   0.00e+00   0.00e+00   0.00e+00  -1.00e+00
   1.10e+06


k, l, m	1	7	1
kode: 0	iter: 8	error: 0.000000e+00

solution vector:
     0  C             -2.36e-07
     1  N             -1.43e-04
     2  Mu             5.38e-08
     3  A(H2O)        -2.46e-06
     4  pH             7.01e-05
     5  Hydrogen      -1.37e-01
     6  Oxygen        -9.69e-10
     7  gas moles     -1.42e-04

residual vector:
     0  gas moles      0.00e+00
     1  C              0.00e+00
     2  N              0.00e+00
     3  Mu             0.00e+00
     4  A(H2O)         0.00e+00
     5  pH             0.00e+00
     6  Hydrogen       0.00e+00
     7  Oxygen         0.00e+00
     8  gas moles      1.10e+06

Sum of deltas:     0.137175
Factor:   1.0000e+00
C          old la    -10.23106   new la    -10.23106   delta  -2.36e-07   delta/c  -1.02e-07
N          old la     -1.22134   new la     -1.22140   delta  -1.43e-04   delta/c  -6.21e-05
Calculated mu: 7.590583e-04
Mu         old mu      0.00076   new mu      0.00076   delta   5.38e-08
A(H2O)     old la     -0.00833   new la     -0.00833   delta  -2.46e-06   delta/c  -1.07e-06
pH         old la     -3.13259   new la     -3.13256   delta   7.01e-05   delta/c   3.04e-05
Hydrogen   old pe     -3.94797   new pe     -4.00738   delta  -1.37e-01   delta/c  -5.94e-02
Oxygen     old MH2O   1.00e+00   new MH2O   1.00e+00   delta  -9.69e-10   10**d/c   1.00e+00
gas moles  old mol    1.10e+06   new mol    1.10e+06   delta  -1.42e-04
C          old mole   5.52e+05   new mole   5.52e+05   delta   0.00e+00
N          old mole   1.10e+06   new mole   1.10e+06   delta   0.00e+00
pH         old mole  -1.89e-18   new mole  -1.89e-18   delta   0.00e+00
Hydrogen   old mole  -2.21e+06   new mole  -2.21e+06   delta   0.00e+00
Oxygen     old mole   1.11e+06   new mole   1.11e+06   delta   0.00e+00

Iteration 11	Step_size = 100.000000
		Pe_step_size = 10.000000


A and B arrays:

0
   1.00e+02   1.00e+02   0.00e+00  -1.00e+02   2.00e+02   0.00e+00   0.00e+00   0.00e+00
  -2.85e-05

1
   5.52e+05   0.00e+00  -2.29e-01  -5.52e+05   1.10e+06   1.18e-32   1.06e+00   5.00e-01
   1.82e+02

2
   0.00e+00   1.11e+06  -2.77e-02   0.00e+00   9.67e-10   7.26e-10   1.20e-01   1.00e+00
  -3.64e+02

3
   3.80e-04   6.05e-11  -9.86e-01   8.23e-12   7.59e-04   3.63e-10   1.51e-11   0.00e+00
  -1.51e-11

4
  -1.80e-02  -1.02e-03   3.89e-03  -9.63e-01  -3.59e-02  -1.25e-11  -1.96e-10  -0.00e+00
   1.96e-10

5
  -7.59e-04   1.21e-10  -8.64e-04  -2.53e-11   9.27e-10   7.25e-10   2.69e-11   0.00e+00
  -2.69e-11

6
  -2.21e+06   4.84e-10   9.14e-01   2.21e+06  -4.42e+06   2.90e-09  -4.23e+00  -2.00e+00
  -7.27e+02

7
   1.10e+06   0.00e+00  -4.43e-01  -1.10e+06   2.21e+06   8.95e-12   5.76e+01   1.00e+00
   3.64e+02

8
   0.00e+00   0.00e+00   0.00e+00   0.00e+00   0.00e+00   0.00e+00   0.00e+00  -1.00e+00
   1.10e+06


k, l, m	1	7	1
kode: 1	iter: 7	error: 5.940635e-08

solution vector:
     0  C              1.10e-07
     1  N             -3.29e-04
     2  Mu             1.25e-07
     3  A(H2O)        -5.69e-06
     4  pH             1.62e-04
     5  Hydrogen       2.26e-01
     6  Oxygen        -2.25e-09
     7  gas moles      0.00e+00

residual vector:
     0  gas moles      5.94e-08
     1  C              0.00e+00
     2  N              0.00e+00
     3  Mu             0.00e+00
     4  A(H2O)         0.00e+00
     5  pH             0.00e+00
     6  Hydrogen       0.00e+00
     7  Oxygen         0.00e+00
     8  gas moles      1.10e+06
Ineq had infeasible solution, kode 0, iteration 11

Sum of deltas:     0.226656
Factor:   1.0000e+00
C          old la    -10.23106   new la    -10.23106   delta   1.10e-07   delta/c   4.77e-08
N          old la     -1.22140   new la     -1.22155   delta  -3.29e-04   delta/c  -1.43e-04
Calculated mu: 7.591121e-04
Mu         old mu      0.00076   new mu      0.00076   delta   1.25e-07
A(H2O)     old la     -0.00833   new la     -0.00834   delta  -5.69e-06   delta/c  -2.47e-06
pH         old la     -3.13256   new la     -3.13249   delta   1.62e-04   delta/c   7.02e-05
Hydrogen   old pe     -4.00738   new pe     -3.90916   delta   2.26e-01   delta/c   9.82e-02
Oxygen     old MH2O   1.00e+00   new MH2O   1.00e+00   delta  -2.25e-09   10**d/c   1.00e+00
gas moles  old mol    1.10e+06   new mol    1.10e+06   delta   0.00e+00
C          old mole   5.52e+05   new mole   5.52e+05   delta   0.00e+00
N          old mole   1.10e+06   new mole   1.10e+06   delta   0.00e+00
pH         old mole  -1.89e-18   new mole  -1.89e-18   delta   0.00e+00
Hydrogen   old mole  -2.21e+06   new mole  -2.21e+06   delta   0.00e+00
Oxygen     old mole   1.11e+06   new mole   1.11e+06   delta   0.00e+00

Iteration 12	Step_size = 100.000000
		Pe_step_size = 10.000000


A and B arrays:

0
   1.00e+02   1.00e+02   0.00e+00  -1.00e+02   2.00e+02   0.00e+00   0.00e+00   0.00e+00
  -7.63e-06

1
   5.52e+05   0.00e+00  -2.29e-01  -5.52e+05   1.10e+06   7.19e-32   1.06e+00   5.00e-01
   4.46e+01

2
   0.00e+00   1.11e+06  -2.77e-02   0.00e+00   1.91e-09   1.43e-09   1.20e-01   1.00e+00
  -8.93e+01

3
   3.80e-04   1.19e-10  -9.86e-01   8.23e-12   7.59e-04   7.15e-10   4.57e-11   0.00e+00
  -4.57e-11

4
  -1.80e-02  -1.02e-03   3.89e-03  -9.63e-01  -3.60e-02  -2.45e-11  -1.05e-09  -0.00e+00
   1.05e-09

5
  -7.59e-04   2.38e-10  -8.64e-04  -2.53e-11   1.68e-09   1.43e-09   7.08e-11   0.00e+00
  -7.08e-11

6
  -2.21e+06   9.54e-10   9.14e-01   2.21e+06  -4.42e+06   5.72e-09  -4.23e+00  -2.00e+00
  -1.78e+02

7
   1.10e+06   0.00e+00  -4.43e-01  -1.10e+06   2.21e+06   8.97e-12   5.76e+01   1.00e+00
   8.92e+01

8
   0.00e+00   0.00e+00   0.00e+00   0.00e+00   0.00e+00   0.00e+00   0.00e+00  -1.00e+00
   1.10e+06


k, l, m	1	7	1
kode: 0	iter: 8	error: 0.000000e+00

solution vector:
     0  C             -1.15e-07
     1  N             -8.08e-05
     2  Mu             3.05e-08
     3  A(H2O)        -1.40e-06
     4  pH             3.97e-05
     5  Hydrogen      -9.20e-02
     6  Oxygen        -5.50e-10
     7  gas moles     -4.09e-04

residual vector:
     0  gas moles      0.00e+00
     1  C              0.00e+00
     2  N              0.00e+00
     3  Mu             0.00e+00
     4  A(H2O)         0.00e+00
     5  pH             0.00e+00
     6  Hydrogen       0.00e+00
     7  Oxygen         0.00e+00
     8  gas moles      1.10e+06

Sum of deltas:     0.092573
Factor:   1.0000e+00
C          old la    -10.23106   new la    -10.23106   delta  -1.15e-07   delta/c  -4.99e-08
N          old la     -1.22155   new la     -1.22158   delta  -8.08e-05   delta/c  -3.51e-05
Calculated mu: 7.592368e-04
Mu         old mu      0.00076   new mu      0.00076   delta   3.05e-08
A(H2O)     old la     -0.00834   new la     -0.00834   delta  -1.40e-06   delta/c  -6.06e-07
pH         old la     -3.13249   new la     -3.13248   delta   3.97e-05   delta/c   1.72e-05
Hydrogen   old pe     -3.90916   new pe     -3.94914   delta  -9.20e-02   delta/c  -4.00e-02
Oxygen     old MH2O   1.00e+00   new MH2O   1.00e+00   delta  -5.50e-10   10**d/c   1.00e+00
gas moles  old mol    1.10e+06   new mol    1.10e+06   delta  -4.09e-04
C          old mole   5.52e+05   new mole   5.52e+05   delta   0.00e+00
N          old mole   1.10e+06   new mole   1.10e+06   delta   0.00e+00
pH         old mole  -1.89e-18   new mole  -1.89e-18   delta   0.00e+00
Hydrogen   old mole  -2.21e+06   new mole  -2.21e+06   delta   0.00e+00
Oxygen     old mole   1.11e+06   new mole   1.11e+06   delta   0.00e+00

Iteration 13	Step_size = 100.000000
		Pe_step_size = 10.000000


A and B arrays:

0
   1.00e+02   1.00e+02   0.00e+00  -1.00e+02   2.00e+02   0.00e+00   0.00e+00   0.00e+00
  -6.22e-06

1
   5.53e+05   0.00e+00  -2.29e-01  -5.53e+05   1.11e+06   3.45e-32   1.06e+00   5.00e-01
  -5.94e+01

2
   0.00e+00   1.10e+06  -2.76e-02   0.00e+00   1.45e-09   1.09e-09   1.20e-01   1.00e+00
   1.19e+02

3
   3.80e-04   9.05e-11  -9.86e-01   8.23e-12   7.59e-04   5.43e-10   8.98e-12   0.00e+00
  -8.98e-12

4
  -1.80e-02  -1.02e-03   3.89e-03  -9.63e-01  -3.60e-02  -1.86e-11  -6.31e-11  -0.00e+00
   6.31e-11

5
  -7.59e-04   1.81e-10  -8.64e-04  -2.53e-11   1.28e-09   1.09e-09   1.66e-11   0.00e+00
  -1.66e-11

6
  -2.21e+06   7.24e-10   9.14e-01   2.21e+06  -4.42e+06   4.34e-09  -4.23e+00  -2.00e+00
   2.38e+02

7
   1.11e+06   0.00e+00  -4.43e-01  -1.11e+06   2.21e+06   8.96e-12   5.76e+01   1.00e+00
  -1.19e+02

8
   0.00e+00   0.00e+00   0.00e+00   0.00e+00   0.00e+00   0.00e+00   0.00e+00  -1.00e+00
   1.10e+06


k, l, m	1	7	1
kode: 0	iter: 8	error: 0.000000e+00

solution vector:
     0  C              7.55e-08
     1  N              1.08e-04
     2  Mu            -4.07e-08
     3  A(H2O)         1.86e-06
     4  pH            -5.29e-05
     5  Hydrogen       5.15e-03
     6  Oxygen         7.33e-10
     7  gas moles      1.07e-04

residual vector:
     0  gas moles      0.00e+00
     1  C              0.00e+00
     2  N              0.00e+00
     3  Mu             0.00e+00
     4  A(H2O)         0.00e+00
     5  pH             0.00e+00
     6  Hydrogen       0.00e+00
     7  Oxygen         0.00e+00
     8  gas moles      1.10e+06

Sum of deltas:     0.005415
Factor:   1.0000e+00
C          old la    -10.23106   new la    -10.23106   delta   7.55e-08   delta/c   3.28e-08
N          old la     -1.22158   new la     -1.22154   delta   1.08e-04   delta/c   4.67e-05
Calculated mu: 7.592673e-04
Mu         old mu      0.00076   new mu      0.00076   delta  -4.07e-08
A(H2O)     old la     -0.00834   new la     -0.00834   delta   1.86e-06   delta/c   8.08e-07
pH         old la     -3.13248   new la     -3.13250   delta  -5.29e-05   delta/c  -2.30e-05
Hydrogen   old pe     -3.94914   new pe     -3.94690   delta   5.15e-03   delta/c   2.23e-03
Oxygen     old MH2O   1.00e+00   new MH2O   1.00e+00   delta   7.33e-10   10**d/c   1.00e+00
gas moles  old mol    1.10e+06   new mol    1.10e+06   delta   1.07e-04
C          old mole   5.52e+05   new mole   5.52e+05   delta   0.00e+00
N          old mole   1.10e+06   new mole   1.10e+06   delta   0.00e+00
pH         old mole  -1.89e-18   new mole  -1.89e-18   delta   0.00e+00
Hydrogen   old mole  -2.21e+06   new mole  -2.21e+06   delta   0.00e+00
Oxygen     old mole   1.11e+06   new mole   1.11e+06   delta   0.00e+00

Iteration 14	Step_size = 100.000000
		Pe_step_size = 10.000000


A and B arrays:

0
   1.00e+02   1.00e+02   0.00e+00  -1.00e+02   2.00e+02   0.00e+00   0.00e+00   0.00e+00
  -1.60e-06

1
   5.53e+05   0.00e+00  -2.29e-01  -5.53e+05   1.11e+06   3.59e-32   1.06e+00   5.00e-01
  -4.50e+01

2
   0.00e+00   1.10e+06  -2.76e-02   0.00e+00   1.47e-09   1.10e-09   1.20e-01   1.00e+00
   9.00e+01

3
   3.80e-04   9.19e-11  -9.86e-01   8.23e-12   7.59e-04   5.51e-10   1.08e-12   0.00e+00
  -1.08e-12

4
  -1.80e-02  -1.02e-03   3.89e-03  -9.63e-01  -3.60e-02  -1.89e-11  -1.12e-10  -0.00e+00
   1.12e-10

5
  -7.59e-04   1.84e-10  -8.64e-04  -2.53e-11   1.28e-09   1.10e-09   4.52e-14   0.00e+00
  -4.52e-14

6
  -2.21e+06   7.35e-10   9.14e-01   2.21e+06  -4.42e+06   4.41e-09  -4.23e+00  -2.00e+00
   1.80e+02

7
   1.11e+06   0.00e+00  -4.43e-01  -1.11e+06   2.21e+06   8.96e-12   5.76e+01   1.00e+00
  -9.00e+01

8
   0.00e+00   0.00e+00   0.00e+00   0.00e+00   0.00e+00   0.00e+00   0.00e+00  -1.00e+00
   1.10e+06


k, l, m	1	7	1
kode: 0	iter: 8	error: 0.000000e+00

solution vector:
     0  C             -1.69e-07
     1  N              8.15e-05
     2  Mu            -3.09e-08
     3  A(H2O)         1.41e-06
     4  pH            -3.99e-05
     5  Hydrogen      -1.41e-01
     6  Oxygen         5.57e-10
     7  gas moles      8.12e-05

residual vector:
     0  gas moles      0.00e+00
     1  C              0.00e+00
     2  N              0.00e+00
     3  Mu             0.00e+00
     4  A(H2O)         0.00e+00
     5  pH             0.00e+00
     6  Hydrogen       0.00e+00
     7  Oxygen         0.00e+00
     8  gas moles      1.10e+06

Sum of deltas:     0.140959
Factor:   1.0000e+00
C          old la    -10.23106   new la    -10.23106   delta  -1.69e-07   delta/c  -7.35e-08
N          old la     -1.22154   new la     -1.22150   delta   8.15e-05   delta/c   3.54e-05
Calculated mu: 7.592266e-04
Mu         old mu      0.00076   new mu      0.00076   delta  -3.09e-08
A(H2O)     old la     -0.00834   new la     -0.00834   delta   1.41e-06   delta/c   6.12e-07
pH         old la     -3.13250   new la     -3.13252   delta  -3.99e-05   delta/c  -1.73e-05
Hydrogen   old pe     -3.94690   new pe     -4.00803   delta  -1.41e-01   delta/c  -6.11e-02
Oxygen     old MH2O   1.00e+00   new MH2O   1.00e+00   delta   5.57e-10   10**d/c   1.00e+00
gas moles  old mol    1.10e+06   new mol    1.10e+06   delta   8.12e-05
C          old mole   5.52e+05   new mole   5.52e+05   delta   0.00e+00
N          old mole   1.10e+06   new mole   1.10e+06   delta   0.00e+00
pH         old mole  -1.89e-18   new mole  -1.89e-18   delta   0.00e+00
Hydrogen   old mole  -2.21e+06   new mole  -2.21e+06   delta   0.00e+00
Oxygen     old mole   1.11e+06   new mole   1.11e+06   delta   0.00e+00

Iteration 15	Step_size = 100.000000
		Pe_step_size = 10.000000


A and B arrays:

0
   1.00e+02   1.00e+02   0.00e+00  -1.00e+02   2.00e+02   0.00e+00   0.00e+00   0.00e+00
  -8.90e-07

1
   5.52e+05   0.00e+00  -2.29e-01  -5.52e+05   1.10e+06   1.16e-32   1.06e+00   5.00e-01
   6.23e+00

2
   0.00e+00   1.11e+06  -2.76e-02   0.00e+00   9.63e-10   7.23e-10   1.20e-01   1.00e+00
  -1.25e+01

3
   3.80e-04   6.02e-11  -9.86e-01   8.23e-12   7.59e-04   3.61e-10   1.49e-11   0.00e+00
  -1.49e-11

4
  -1.80e-02  -1.02e-03   3.89e-03  -9.63e-01  -3.60e-02  -1.24e-11  -6.45e-11  -0.00e+00
   6.45e-11

5
  -7.59e-04   1.20e-10  -8.64e-04  -2.53e-11   9.26e-10   7.22e-10   2.86e-11   0.00e+00
  -2.86e-11

6
  -2.21e+06   4.82e-10   9.14e-01   2.21e+06  -4.42e+06   2.89e-09  -4.23e+00  -2.00e+00
  -2.49e+01

7
   1.10e+06   0.00e+00  -4.43e-01  -1.10e+06   2.21e+06   8.95e-12   5.76e+01   1.00e+00
   1.25e+01

8
   0.00e+00   0.00e+00   0.00e+00   0.00e+00   0.00e+00   0.00e+00   0.00e+00  -1.00e+00
   1.10e+06


k, l, m	1	7	1
kode: 0	iter: 8	error: 0.000000e+00

solution vector:
     0  C              2.50e-07
     1  N             -1.13e-05
     2  Mu             4.36e-09
     3  A(H2O)        -1.95e-07
     4  pH             5.41e-06
     5  Hydrogen       2.28e-01
     6  Oxygen        -7.87e-11
     7  gas moles     -1.12e-05

residual vector:
     0  gas moles      0.00e+00
     1  C              0.00e+00
     2  N              0.00e+00
     3  Mu             0.00e+00
     4  A(H2O)         0.00e+00
     5  pH             0.00e+00
     6  Hydrogen       0.00e+00
     7  Oxygen         0.00e+00
     8  gas moles      1.10e+06

Sum of deltas:     0.228043
Factor:   1.0000e+00
C          old la    -10.23106   new la    -10.23106   delta   2.50e-07   delta/c   1.08e-07
N          old la     -1.22150   new la     -1.22151   delta  -1.13e-05   delta/c  -4.90e-06
Calculated mu: 7.591957e-04
Mu         old mu      0.00076   new mu      0.00076   delta   4.36e-09
A(H2O)     old la     -0.00834   new la     -0.00834   delta  -1.95e-07   delta/c  -8.47e-08
pH         old la     -3.13252   new la     -3.13251   delta   5.41e-06   delta/c   2.35e-06
Hydrogen   old pe     -4.00803   new pe     -3.90901   delta   2.28e-01   delta/c   9.90e-02
Oxygen     old MH2O   1.00e+00   new MH2O   1.00e+00   delta  -7.87e-11   10**d/c   1.00e+00
gas moles  old mol    1.10e+06   new mol    1.10e+06   delta  -1.12e-05
C          old mole   5.52e+05   new mole   5.52e+05   delta   0.00e+00
N          old mole   1.10e+06   new mole   1.10e+06   delta   0.00e+00
pH         old mole  -1.89e-18   new mole  -1.89e-18   delta   0.00e+00
Hydrogen   old mole  -2.21e+06   new mole  -2.21e+06   delta   0.00e+00
Oxygen     old mole   1.11e+06   new mole   1.11e+06   delta   0.00e+00

Iteration 16	Step_size = 100.000000
		Pe_step_size = 10.000000


A and B arrays:

0
   1.00e+02   1.00e+02   0.00e+00  -1.00e+02   2.00e+02   0.00e+00   0.00e+00   0.00e+00
  -4.55e-07

1
   5.52e+05   0.00e+00  -2.29e-01  -5.52e+05   1.10e+06   7.21e-32   1.06e+00   5.00e-01
   2.22e+01

2
   0.00e+00   1.11e+06  -2.76e-02   0.00e+00   1.91e-09   1.43e-09   1.20e-01   1.00e+00
  -4.44e+01

3
   3.80e-04   1.19e-10  -9.86e-01   8.23e-12   7.59e-04   7.16e-10   3.59e-11   0.00e+00
  -3.59e-11

4
  -1.80e-02  -1.02e-03   3.89e-03  -9.63e-01  -3.60e-02  -2.45e-11  -2.45e-12  -0.00e+00
   2.45e-12

5
  -7.59e-04   2.39e-10  -8.64e-04  -2.53e-11   1.68e-09   1.43e-09   7.17e-11   0.00e+00
  -7.17e-11

6
  -2.21e+06   9.55e-10   9.14e-01   2.21e+06  -4.42e+06   5.73e-09  -4.23e+00  -2.00e+00
  -8.87e+01

7
   1.10e+06   0.00e+00  -4.43e-01  -1.10e+06   2.21e+06   8.97e-12   5.76e+01   1.00e+00
   4.43e+01

8
   0.00e+00   0.00e+00   0.00e+00   0.00e+00   0.00e+00   0.00e+00   0.00e+00  -1.00e+00
   1.10e+06


k, l, m	1	7	1
kode: 0	iter: 8	error: 0.000000e+00

solution vector:
     0  C             -9.57e-08
     1  N             -4.01e-05
     2  Mu             1.52e-08
     3  A(H2O)        -6.94e-07
     4  pH             1.98e-05
     5  Hydrogen      -9.17e-02
     6  Oxygen        -2.77e-10
     7  gas moles     -4.00e-05

residual vector:
     0  gas moles      0.00e+00
     1  C              0.00e+00
     2  N              0.00e+00
     3  Mu             0.00e+00
     4  A(H2O)         0.00e+00
     5  pH             0.00e+00
     6  Hydrogen       0.00e+00
     7  Oxygen         0.00e+00
     8  gas moles      1.10e+06

Sum of deltas:     0.091817
Factor:   1.0000e+00
C          old la    -10.23106   new la    -10.23106   delta  -9.57e-08   delta/c  -4.16e-08
N          old la     -1.22151   new la     -1.22152   delta  -4.01e-05   delta/c  -1.74e-05
Calculated mu: 7.592001e-04
Mu         old mu      0.00076   new mu      0.00076   delta   1.52e-08
A(H2O)     old la     -0.00834   new la     -0.00834   delta  -6.94e-07   delta/c  -3.01e-07
pH         old la     -3.13251   new la     -3.13251   delta   1.98e-05   delta/c   8.59e-06
Hydrogen   old pe     -3.90901   new pe     -3.94884   delta  -9.17e-02   delta/c  -3.98e-02
Oxygen     old MH2O   1.00e+00   new MH2O   1.00e+00   delta  -2.77e-10   10**d/c   1.00e+00
gas moles  old mol    1.10e+06   new mol    1.10e+06   delta  -4.00e-05
C          old mole   5.52e+05   new mole   5.52e+05   delta   0.00e+00
N          old mole   1.10e+06   new mole   1.10e+06   delta   0.00e+00
pH         old mole  -1.89e-18   new mole  -1.89e-18   delta   0.00e+00
Hydrogen   old mole  -2.21e+06   new mole  -2.21e+06   delta   0.00e+00
Oxygen     old mole   1.11e+06   new mole   1.11e+06   delta   0.00e+00

Iteration 17	Step_size = 100.000000
		Pe_step_size = 10.000000


A and B arrays:

0
   1.00e+02   1.00e+02   0.00e+00  -1.00e+02   2.00e+02   0.00e+00   0.00e+00   0.00e+00
  -1.12e-07

1
   5.52e+05   0.00e+00  -2.29e-01  -5.52e+05   1.10e+06   3.46e-32   1.06e+00   5.00e-01
   6.90e+00

2
   0.00e+00   1.11e+06  -2.76e-02   0.00e+00   1.45e-09   1.09e-09   1.20e-01   1.00e+00
  -1.38e+01

3
   3.80e-04   9.06e-11  -9.86e-01   8.23e-12   7.59e-04   5.44e-10   8.41e-12   0.00e+00
  -8.41e-12

4
  -1.80e-02  -1.02e-03   3.89e-03  -9.63e-01  -3.60e-02  -1.86e-11  -1.58e-11  -0.00e+00
   1.58e-11

5
  -7.59e-04   1.81e-10  -8.64e-04  -2.53e-11   1.28e-09   1.09e-09   1.65e-11   0.00e+00
  -1.65e-11

6
  -2.21e+06   7.25e-10   9.14e-01   2.21e+06  -4.42e+06   4.35e-09  -4.23e+00  -2.00e+00
  -2.76e+01

7
   1.10e+06   0.00e+00  -4.43e-01  -1.10e+06   2.21e+06   8.96e-12   5.76e+01   1.00e+00
   1.38e+01

8
   0.00e+00   0.00e+00   0.00e+00   0.00e+00   0.00e+00   0.00e+00   0.00e+00  -1.00e+00
   1.10e+06


k, l, m	1	7	1
kode: 1	iter: 7	error: 2.253771e-09

solution vector:
     0  C              2.36e-08
     1  N             -1.25e-05
     2  Mu             4.74e-09
     3  A(H2O)        -2.16e-07
     4  pH             6.12e-06
     5  Hydrogen       5.06e-03
     6  Oxygen        -8.11e-11
     7  gas moles      0.00e+00

residual vector:
     0  gas moles      2.25e-09
     1  C              0.00e+00
     2  N              0.00e+00
     3  Mu             0.00e+00
     4  A(H2O)         0.00e+00
     5  pH             0.00e+00
     6  Hydrogen       0.00e+00
     7  Oxygen         0.00e+00
     8  gas moles      1.10e+06
Ineq had infeasible solution, kode 0, iteration 17

Sum of deltas:     0.005074
Factor:   1.0000e+00
C          old la    -10.23106   new la    -10.23106   delta   2.36e-08   delta/c   1.03e-08
N          old la     -1.22152   new la     -1.22153   delta  -1.25e-05   delta/c  -5.42e-06
Calculated mu: 7.592152e-04
Mu         old mu      0.00076   new mu      0.00076   delta   4.74e-09
A(H2O)     old la     -0.00834   new la     -0.00834   delta  -2.16e-07   delta/c  -9.38e-08
pH         old la     -3.13251   new la     -3.13250   delta   6.12e-06   delta/c   2.66e-06
Hydrogen   old pe     -3.94884   new pe     -3.94664   delta   5.06e-03   delta/c   2.20e-03
Oxygen     old MH2O   1.00e+00   new MH2O   1.00e+00   delta  -8.11e-11   10**d/c   1.00e+00
gas moles  old mol    1.10e+06   new mol    1.10e+06   delta   0.00e+00
C          old mole   5.52e+05   new mole   5.52e+05   delta   0.00e+00
N          old mole   1.10e+06   new mole   1.10e+06   delta   0.00e+00
pH         old mole  -1.89e-18   new mole  -1.89e-18   delta   0.00e+00
Hydrogen   old mole  -2.21e+06   new mole  -2.21e+06   delta   0.00e+00
Oxygen     old mole   1.11e+06   new mole   1.11e+06   delta   0.00e+00

Iteration 18	Step_size = 100.000000
		Pe_step_size = 10.000000


A and B arrays:

0
   1.00e+02   1.00e+02   0.00e+00  -1.00e+02   2.00e+02   0.00e+00   0.00e+00   0.00e+00
  -9.07e-08

1
   5.53e+05   0.00e+00  -2.29e-01  -5.53e+05   1.11e+06   3.61e-32   1.06e+00   5.00e-01
  -6.61e+00

2
   0.00e+00   1.10e+06  -2.76e-02   0.00e+00   1.47e-09   1.10e-09   1.20e-01   1.00e+00
   1.32e+01

3
   3.80e-04   9.20e-11  -9.86e-01   8.23e-12   7.59e-04   5.52e-10   3.69e-14   0.00e+00
  -3.69e-14

4
  -1.80e-02  -1.02e-03   3.89e-03  -9.63e-01  -3.60e-02  -1.89e-11  -1.50e-12  -0.00e+00
   1.50e-12

5
  -7.59e-04   1.84e-10  -8.64e-04  -2.53e-11   1.28e-09   1.10e-09   4.18e-14   0.00e+00
  -4.18e-14

6
  -2.21e+06   7.36e-10   9.14e-01   2.21e+06  -4.42e+06   4.42e-09  -4.23e+00  -2.00e+00
   2.64e+01

7
   1.11e+06   0.00e+00  -4.43e-01  -1.11e+06   2.21e+06   8.96e-12   5.76e+01   1.00e+00
  -1.32e+01

8
   0.00e+00   0.00e+00   0.00e+00   0.00e+00   0.00e+00   0.00e+00   0.00e+00  -1.00e+00
   1.10e+06


k, l, m	1	7	1
kode: 1	iter: 7	error: 9.449521e-11

solution vector:
     0  C              5.23e-09
     1  N              1.20e-05
     2  Mu            -4.53e-09
     3  A(H2O)         2.07e-07
     4  pH            -5.88e-06
     5  Hydrogen       1.82e-05
     6  Oxygen         8.16e-11
     7  gas moles      0.00e+00

residual vector:
     0  gas moles      9.45e-11
     1  C              0.00e+00
     2  N              0.00e+00
     3  Mu             0.00e+00
     4  A(H2O)         0.00e+00
     5  pH             0.00e+00
     6  Hydrogen       0.00e+00
     7  Oxygen         0.00e+00
     8  gas moles      1.10e+06
Ineq had infeasible solution, kode 0, iteration 18

Sum of deltas:     0.000036
Factor:   1.0000e+00
C          old la    -10.23106   new la    -10.23106   delta   5.23e-09   delta/c   2.27e-09
N          old la     -1.22153   new la     -1.22152   delta   1.20e-05   delta/c   5.20e-06
Calculated mu: 7.592199e-04
Mu         old mu      0.00076   new mu      0.00076   delta  -4.53e-09
A(H2O)     old la     -0.00834   new la     -0.00834   delta   2.07e-07   delta/c   8.98e-08
pH         old la     -3.13250   new la     -3.13251   delta  -5.88e-06   delta/c  -2.55e-06
Hydrogen   old pe     -3.94664   new pe     -3.94664   delta   1.82e-05   delta/c   7.91e-06
Oxygen     old MH2O   1.00e+00   new MH2O   1.00e+00   delta   8.16e-11   10**d/c   1.00e+00
gas moles  old mol    1.10e+06   new mol    1.10e+06   delta   0.00e+00
C          old mole   5.52e+05   new mole   5.52e+05   delta   0.00e+00
N          old mole   1.10e+06   new mole   1.10e+06   delta   0.00e+00
pH         old mole  -1.89e-18   new mole  -1.89e-18   delta   0.00e+00
Hydrogen   old mole  -2.21e+06   new mole  -2.21e+06   delta   0.00e+00
Oxygen     old mole   1.11e+06   new mole   1.11e+06   delta   0.00e+00

Iteration 19	Step_size = 100.000000
		Pe_step_size = 10.000000


A and B arrays:

0
   1.00e+02   1.00e+02   0.00e+00  -1.00e+02   2.00e+02   0.00e+00   0.00e+00   0.00e+00
  -2.60e-08

1
   5.53e+05   0.00e+00  -2.29e-01  -5.53e+05   1.11e+06   3.61e-32   1.06e+00   5.00e-01
  -5.85e+00

2
   0.00e+00   1.10e+06  -2.76e-02   0.00e+00   1.47e-09   1.10e-09   1.20e-01   1.00e+00
   1.17e+01

3
   3.80e-04   9.20e-11  -9.86e-01   8.23e-12   7.59e-04   5.52e-10   1.30e-14   0.00e+00
  -1.30e-14

4
  -1.80e-02  -1.02e-03   3.89e-03  -9.63e-01  -3.60e-02  -1.89e-11  -1.38e-12  -0.00e+00
   1.38e-12

5
  -7.59e-04   1.84e-10  -8.64e-04  -2.53e-11   1.28e-09   1.10e-09   2.59e-17   0.00e+00
  -2.78e-17

6
  -2.21e+06   7.36e-10   9.14e-01   2.21e+06  -4.42e+06   4.42e-09  -4.23e+00  -2.00e+00
   2.34e+01

7
   1.11e+06   0.00e+00  -4.43e-01  -1.11e+06   2.21e+06   8.96e-12   5.76e+01   1.00e+00
  -1.17e+01

8
   0.00e+00   0.00e+00   0.00e+00   0.00e+00   0.00e+00   0.00e+00   0.00e+00  -1.00e+00
   1.10e+06


k, l, m	1	7	1
kode: 0	iter: 8	error: 0.000000e+00

solution vector:
     0  C              4.56e-09
     1  N              1.06e-05
     2  Mu            -4.00e-09
     3  A(H2O)         1.83e-07
     4  pH            -5.20e-06
     5  Hydrogen       5.01e-06
     6  Oxygen         7.21e-11
     7  gas moles      1.00e-05

residual vector:
     0  gas moles      0.00e+00
     1  C              0.00e+00
     2  N              0.00e+00
     3  Mu             0.00e+00
     4  A(H2O)         0.00e+00
     5  pH             0.00e+00
     6  Hydrogen       0.00e+00
     7  Oxygen         0.00e+00
     8  gas moles      1.10e+06

Sum of deltas:     0.000031
Factor:   1.0000e+00
C          old la    -10.23106   new la    -10.23106   delta   4.56e-09   delta/c   1.98e-09
N          old la     -1.22152   new la     -1.22152   delta   1.06e-05   delta/c   4.60e-06
Calculated mu: 7.592154e-04
Mu         old mu      0.00076   new mu      0.00076   delta  -4.00e-09
A(H2O)     old la     -0.00834   new la     -0.00834   delta   1.83e-07   delta/c   7.94e-08
pH         old la     -3.13251   new la     -3.13251   delta  -5.20e-06   delta/c  -2.26e-06
Hydrogen   old pe     -3.94664   new pe     -3.94663   delta   5.01e-06   delta/c   2.17e-06
Oxygen     old MH2O   1.00e+00   new MH2O   1.00e+00   delta   7.21e-11   10**d/c   1.00e+00
gas moles  old mol    1.10e+06   new mol    1.10e+06   delta   1.00e-05
C          old mole   5.52e+05   new mole   5.52e+05   delta   0.00e+00
N          old mole   1.10e+06   new mole   1.10e+06   delta   0.00e+00
pH         old mole  -1.89e-18   new mole  -1.89e-18   delta   0.00e+00
Hydrogen   old mole  -2.21e+06   new mole  -2.21e+06   delta   0.00e+00
Oxygen     old mole   1.11e+06   new mole   1.11e+06   delta   0.00e+00

Iteration 20	Step_size = 100.000000
		Pe_step_size = 10.000000


A and B arrays:

0
   1.00e+02   1.00e+02   0.00e+00  -1.00e+02   2.00e+02   0.00e+00   0.00e+00   0.00e+00
  -1.26e-08

1
   5.52e+05   0.00e+00  -2.29e-01  -5.52e+05   1.10e+06   3.61e-32   1.06e+00   5.00e-01
   3.31e-01

2
   0.00e+00   1.10e+06  -2.76e-02   0.00e+00   1.47e-09   1.10e-09   1.20e-01   1.00e+00
  -6.61e-01

3
   3.80e-04   9.20e-11  -9.86e-01   8.23e-12   7.59e-04   5.52e-10   1.08e-14   0.00e+00
  -1.08e-14

4
  -1.80e-02  -1.02e-03   3.89e-03  -9.63e-01  -3.60e-02  -1.89e-11  -1.08e-12  -0.00e+00
   1.08e-12

5
  -7.59e-04   1.84e-10  -8.64e-04  -2.53e-11   1.28e-09   1.10e-09  -1.94e-17   0.00e+00
   1.75e-17

6
  -2.21e+06   7.36e-10   9.14e-01   2.21e+06  -4.42e+06   4.42e-09  -4.23e+00  -2.00e+00
  -1.32e+00

7
   1.10e+06   0.00e+00  -4.43e-01  -1.10e+06   2.21e+06   8.96e-12   5.76e+01   1.00e+00
   6.61e-01

8
   0.00e+00   0.00e+00   0.00e+00   0.00e+00   0.00e+00   0.00e+00   0.00e+00  -1.00e+00
   1.10e+06


k, l, m	1	7	1
kode: 0	iter: 8	error: 0.000000e+00

solution vector:
     0  C             -2.58e-10
     1  N             -5.99e-07
     2  Mu             2.26e-10
     3  A(H2O)        -1.03e-08
     4  pH             2.94e-07
     5  Hydrogen      -3.53e-07
     6  Oxygen        -8.27e-12
     7  gas moles     -5.97e-07

residual vector:
     0  gas moles      0.00e+00
     1  C              0.00e+00
     2  N              0.00e+00
     3  Mu             0.00e+00
     4  A(H2O)         0.00e+00
     5  pH             0.00e+00
     6  Hydrogen       0.00e+00
     7  Oxygen         0.00e+00
     8  gas moles      1.10e+06

Sum of deltas:     0.000002
Factor:   1.0000e+00
C          old la    -10.23106   new la    -10.23106   delta  -2.58e-10   delta/c  -1.12e-10
N          old la     -1.22152   new la     -1.22152   delta  -5.99e-07   delta/c  -2.60e-07
Calculated mu: 7.592114e-04
Mu         old mu      0.00076   new mu      0.00076   delta   2.26e-10
A(H2O)     old la     -0.00834   new la     -0.00834   delta  -1.03e-08   delta/c  -4.49e-09
pH         old la     -3.13251   new la     -3.13251   delta   2.94e-07   delta/c   1.28e-07
Hydrogen   old pe     -3.94663   new pe     -3.94663   delta  -3.53e-07   delta/c  -1.53e-07
Oxygen     old MH2O   1.00e+00   new MH2O   1.00e+00   delta  -8.27e-12   10**d/c   1.00e+00
gas moles  old mol    1.10e+06   new mol    1.10e+06   delta  -5.97e-07
C          old mole   5.52e+05   new mole   5.52e+05   delta   0.00e+00
N          old mole   1.10e+06   new mole   1.10e+06   delta   0.00e+00
pH         old mole  -1.89e-18   new mole  -1.89e-18   delta   0.00e+00
Hydrogen   old mole  -2.21e+06   new mole  -2.21e+06   delta   0.00e+00
Oxygen     old mole   1.11e+06   new mole   1.11e+06   delta   0.00e+00

Iteration 21	Step_size = 100.000000
		Pe_step_size = 10.000000


A and B arrays:

0
   1.00e+02   1.00e+02   0.00e+00  -1.00e+02   2.00e+02   0.00e+00   0.00e+00   0.00e+00
  -7.17e-09

1
   5.52e+05   0.00e+00  -2.29e-01  -5.52e+05   1.10e+06   3.61e-32   1.06e+00   5.00e-01
   2.67e+00

2
   0.00e+00   1.10e+06  -2.76e-02   0.00e+00   1.47e-09   1.10e-09   1.20e-01   1.00e+00
  -5.35e+00

3
   3.80e-04   9.20e-11  -9.86e-01   8.23e-12   7.59e-04   5.52e-10   1.66e-17   0.00e+00
  -1.66e-17

4
  -1.80e-02  -1.02e-03   3.89e-03  -9.63e-01  -3.60e-02  -1.89e-11  -3.43e-15  -0.00e+00
   3.43e-15

5
  -7.59e-04   1.84e-10  -8.64e-04  -2.53e-11   1.28e-09   1.10e-09  -1.54e-18   0.00e+00
  -3.51e-19

6
  -2.21e+06   7.36e-10   9.14e-01   2.21e+06  -4.42e+06   4.42e-09  -4.23e+00  -2.00e+00
  -1.07e+01

7
   1.10e+06   0.00e+00  -4.43e-01  -1.10e+06   2.21e+06   8.96e-12   5.76e+01   1.00e+00
   5.35e+00

8
   0.00e+00   0.00e+00   0.00e+00   0.00e+00   0.00e+00   0.00e+00   0.00e+00  -1.00e+00
   1.10e+06


k, l, m	1	7	1
kode: 1	iter: 7	error: 8.731139e-10

solution vector:
     0  C             -2.08e-09
     1  N             -4.84e-06
     2  Mu             1.83e-09
     3  A(H2O)        -8.36e-08
     4  pH             2.38e-06
     5  Hydrogen      -2.05e-06
     6  Oxygen        -2.88e-11
     7  gas moles      0.00e+00

residual vector:
     0  gas moles      8.73e-10
     1  C              0.00e+00
     2  N              0.00e+00
     3  Mu             0.00e+00
     4  A(H2O)         0.00e+00
     5  pH             0.00e+00
     6  Hydrogen       0.00e+00
     7  Oxygen         0.00e+00
     8  gas moles      1.10e+06
Ineq had infeasible solution, kode 0, iteration 21

Sum of deltas:     0.000009
Factor:   1.0000e+00
C          old la    -10.23106   new la    -10.23106   delta  -2.08e-09   delta/c  -9.05e-10
N          old la     -1.22152   new la     -1.22152   delta  -4.84e-06   delta/c  -2.10e-06
Calculated mu: 7.592116e-04
Mu         old mu      0.00076   new mu      0.00076   delta   1.83e-09
A(H2O)     old la     -0.00834   new la     -0.00834   delta  -8.36e-08   delta/c  -3.63e-08
pH         old la     -3.13251   new la     -3.13251   delta   2.38e-06   delta/c   1.03e-06
Hydrogen   old pe     -3.94663   new pe     -3.94663   delta  -2.05e-06   delta/c  -8.90e-07
Oxygen     old MH2O   1.00e+00   new MH2O   1.00e+00   delta  -2.88e-11   10**d/c   1.00e+00
gas moles  old mol    1.10e+06   new mol    1.10e+06   delta   0.00e+00
C          old mole   5.52e+05   new mole   5.52e+05   delta   0.00e+00
N          old mole   1.10e+06   new mole   1.10e+06   delta   0.00e+00
pH         old mole  -1.89e-18   new mole  -1.89e-18   delta   0.00e+00
Hydrogen   old mole  -2.21e+06   new mole  -2.21e+06   delta   0.00e+00
Oxygen     old mole   1.11e+06   new mole   1.11e+06   delta   0.00e+00

Iteration 22	Step_size = 100.000000
		Pe_step_size = 10.000000


A and B arrays:

0
   1.00e+02   1.00e+02   0.00e+00  -1.00e+02   2.00e+02   0.00e+00   0.00e+00   0.00e+00
  -7.93e-10

1
   5.52e+05   0.00e+00  -2.29e-01  -5.52e+05   1.10e+06   3.61e-32   1.06e+00   5.00e-01
   1.01e+00

2
   0.00e+00   1.10e+06  -2.76e-02   0.00e+00   1.47e-09   1.10e-09   1.20e-01   1.00e+00
  -2.03e+00

3
   3.80e-04   9.20e-11  -9.86e-01   8.23e-12   7.59e-04   5.52e-10   2.20e-15   0.00e+00
  -2.20e-15

4
  -1.80e-02  -1.02e-03   3.89e-03  -9.63e-01  -3.60e-02  -1.89e-11  -2.26e-13  -0.00e+00
   2.26e-13

5
  -7.59e-04   1.84e-10  -8.64e-04  -2.53e-11   1.28e-09   1.10e-09  -2.94e-18   0.00e+00
   1.05e-18

6
  -2.21e+06   7.36e-10   9.14e-01   2.21e+06  -4.42e+06   4.42e-09  -4.23e+00  -2.00e+00
  -4.05e+00

7
   1.10e+06   0.00e+00  -4.43e-01  -1.10e+06   2.21e+06   8.96e-12   5.76e+01   1.00e+00
   2.03e+00

8
   0.00e+00   0.00e+00   0.00e+00   0.00e+00   0.00e+00   0.00e+00   0.00e+00  -1.00e+00
   1.10e+06


k, l, m	1	7	1
kode: 0	iter: 8	error: 0.000000e+00

solution vector:
     0  C             -2.05e-07
     1  N             -1.83e-06
     2  Mu             6.15e-10
     3  A(H2O)        -3.17e-08
     4  pH             1.00e-06
     5  Hydrogen      -1.41e-01
     6  Oxygen        -1.11e-11
     7  gas moles     -6.65e-06

residual vector:
     0  gas moles      0.00e+00
     1  C              0.00e+00
     2  N              0.00e+00
     3  Mu             0.00e+00
     4  A(H2O)         0.00e+00
     5  pH             0.00e+00
     6  Hydrogen       0.00e+00
     7  Oxygen         0.00e+00
     8  gas moles      1.10e+06

Sum of deltas:     0.140572
Factor:   1.0000e+00
C          old la    -10.23106   new la    -10.23106   delta  -2.05e-07   delta/c  -8.91e-08
N          old la     -1.22152   new la     -1.22152   delta  -1.83e-06   delta/c  -7.97e-07
Calculated mu: 7.592134e-04
Mu         old mu      0.00076   new mu      0.00076   delta   6.15e-10
A(H2O)     old la     -0.00834   new la     -0.00834   delta  -3.17e-08   delta/c  -1.38e-08
pH         old la     -3.13251   new la     -3.13251   delta   1.00e-06   delta/c   4.36e-07
Hydrogen   old pe     -3.94663   new pe     -4.00768   delta  -1.41e-01   delta/c  -6.10e-02
Oxygen     old MH2O   1.00e+00   new MH2O   1.00e+00   delta  -1.11e-11   10**d/c   1.00e+00
gas moles  old mol    1.10e+06   new mol    1.10e+06   delta  -6.65e-06
C          old mole   5.52e+05   new mole   5.52e+05   delta   0.00e+00
N          old mole   1.10e+06   new mole   1.10e+06   delta   0.00e+00
pH         old mole  -1.89e-18   new mole  -1.89e-18   delta   0.00e+00
Hydrogen   old mole  -2.21e+06   new mole  -2.21e+06   delta   0.00e+00
Oxygen     old mole   1.11e+06   new mole   1.11e+06   delta   0.00e+00

Iteration 23	Step_size = 100.000000
		Pe_step_size = 10.000000


A and B arrays:

0
   1.00e+02   1.00e+02   0.00e+00  -1.00e+02   2.00e+02   0.00e+00   0.00e+00   0.00e+00
  -1.38e-09

1
   5.52e+05   0.00e+00  -2.29e-01  -5.52e+05   1.10e+06   1.17e-32   1.06e+00   5.00e-01
  -7.18e-01

2
   0.00e+00   1.10e+06  -2.76e-02   0.00e+00   9.66e-10   7.24e-10   1.20e-01   1.00e+00
   1.44e+00

3
   3.80e-04   6.04e-11  -9.86e-01   8.23e-12   7.59e-04   3.62e-10   1.43e-11   0.00e+00
  -1.43e-11

4
  -1.80e-02  -1.02e-03   3.89e-03  -9.63e-01  -3.60e-02  -1.25e-11  -5.18e-13  -0.00e+00
   5.18e-13

5
  -7.59e-04   1.21e-10  -8.64e-04  -2.53e-11   9.27e-10   7.24e-10   2.86e-11   0.00e+00
  -2.86e-11

6
  -2.21e+06   4.83e-10   9.14e-01   2.21e+06  -4.42e+06   2.90e-09  -4.23e+00  -2.00e+00
   2.87e+00

7
   1.10e+06   0.00e+00  -4.43e-01  -1.10e+06   2.21e+06   8.95e-12   5.76e+01   1.00e+00
  -1.44e+00

8
   0.00e+00   0.00e+00   0.00e+00   0.00e+00   0.00e+00   0.00e+00   0.00e+00  -1.00e+00
   1.10e+06


k, l, m	1	7	1
kode: 0	iter: 8	error: 0.000000e+00

solution vector:
     0  C              5.07e-08
     1  N              1.30e-06
     2  Mu            -4.72e-10
     3  A(H2O)         2.25e-08
     4  pH            -6.64e-07
     5  Hydrogen       1.31e-02
     6  Oxygen         8.51e-12
     7  gas moles      1.30e-06

residual vector:
     0  gas moles      0.00e+00
     1  C              0.00e+00
     2  N              0.00e+00
     3  Mu             0.00e+00
     4  A(H2O)         0.00e+00
     5  pH             0.00e+00
     6  Hydrogen       0.00e+00
     7  Oxygen         0.00e+00
     8  gas moles      1.10e+06

Sum of deltas:     0.013152
Factor:   1.0000e+00
C          old la    -10.23106   new la    -10.23106   delta   5.07e-08   delta/c   2.20e-08
N          old la     -1.22152   new la     -1.22152   delta   1.30e-06   delta/c   5.64e-07
Calculated mu: 7.592141e-04
Mu         old mu      0.00076   new mu      0.00076   delta  -4.72e-10
A(H2O)     old la     -0.00834   new la     -0.00834   delta   2.25e-08   delta/c   9.76e-09
pH         old la     -3.13251   new la     -3.13251   delta  -6.64e-07   delta/c  -2.88e-07
Hydrogen   old pe     -4.00768   new pe     -4.00197   delta   1.31e-02   delta/c   5.71e-03
Oxygen     old MH2O   1.00e+00   new MH2O   1.00e+00   delta   8.51e-12   10**d/c   1.00e+00
gas moles  old mol    1.10e+06   new mol    1.10e+06   delta   1.30e-06
C          old mole   5.52e+05   new mole   5.52e+05   delta   0.00e+00
N          old mole   1.10e+06   new mole   1.10e+06   delta   0.00e+00
pH         old mole  -1.89e-18   new mole  -1.89e-18   delta   0.00e+00
Hydrogen   old mole  -2.21e+06   new mole  -2.21e+06   delta   0.00e+00
Oxygen     old mole   1.11e+06   new mole   1.11e+06   delta   0.00e+00

Iteration 24	Step_size = 100.000000
		Pe_step_size = 10.000000


A and B arrays:

0
   1.00e+02   1.00e+02   0.00e+00  -1.00e+02   2.00e+02   0.00e+00   0.00e+00   0.00e+00
  -4.35e-10

1
   5.52e+05   0.00e+00  -2.29e-01  -5.52e+05   1.10e+06   1.30e-32   1.06e+00   5.00e-01
  -7.49e-01

2
   0.00e+00   1.10e+06  -2.76e-02   0.00e+00   1.00e-09   7.53e-10   1.20e-01   1.00e+00
   1.50e+00

3
   3.80e-04   6.28e-11  -9.86e-01   8.23e-12   7.59e-04   3.77e-10   9.53e-14   0.00e+00
  -9.53e-14

4
  -1.80e-02  -1.02e-03   3.89e-03  -9.63e-01  -3.60e-02  -1.30e-11  -1.95e-14  -0.00e+00
   1.95e-14

5
  -7.59e-04   1.26e-10  -8.64e-04  -2.53e-11   9.28e-10   7.53e-10   1.90e-13   0.00e+00
  -1.90e-13

6
  -2.21e+06   5.02e-10   9.14e-01   2.21e+06  -4.42e+06   3.01e-09  -4.23e+00  -2.00e+00
   3.00e+00

7
   1.10e+06   0.00e+00  -4.43e-01  -1.10e+06   2.21e+06   8.95e-12   5.76e+01   1.00e+00
  -1.50e+00

8
   0.00e+00   0.00e+00   0.00e+00   0.00e+00   0.00e+00   0.00e+00   0.00e+00  -1.00e+00
   1.10e+06


k, l, m	1	7	1
kode: 0	iter: 8	error: 0.000000e+00

solution vector:
     0  C              9.18e-10
     1  N              1.36e-06
     2  Mu            -5.13e-10
     3  A(H2O)         2.34e-08
     4  pH            -6.67e-07
     5  Hydrogen       8.47e-05
     6  Oxygen         9.24e-12
     7  gas moles      1.35e-06

residual vector:
     0  gas moles      0.00e+00
     1  C              0.00e+00
     2  N              0.00e+00
     3  Mu             0.00e+00
     4  A(H2O)         0.00e+00
     5  pH             0.00e+00
     6  Hydrogen       0.00e+00
     7  Oxygen         0.00e+00
     8  gas moles      1.10e+06

Sum of deltas:     0.000088
Factor:   1.0000e+00
C          old la    -10.23106   new la    -10.23106   delta   9.18e-10   delta/c   3.99e-10
N          old la     -1.22152   new la     -1.22152   delta   1.36e-06   delta/c   5.89e-07
Calculated mu: 7.592136e-04
Mu         old mu      0.00076   new mu      0.00076   delta  -5.13e-10
A(H2O)     old la     -0.00834   new la     -0.00834   delta   2.34e-08   delta/c   1.02e-08
pH         old la     -3.13251   new la     -3.13251   delta  -6.67e-07   delta/c  -2.90e-07
Hydrogen   old pe     -4.00197   new pe     -4.00193   delta   8.47e-05   delta/c   3.68e-05
Oxygen     old MH2O   1.00e+00   new MH2O   1.00e+00   delta   9.24e-12   10**d/c   1.00e+00
gas moles  old mol    1.10e+06   new mol    1.10e+06   delta   1.35e-06
C          old mole   5.52e+05   new mole   5.52e+05   delta   0.00e+00
N          old mole   1.10e+06   new mole   1.10e+06   delta   0.00e+00
pH         old mole  -1.89e-18   new mole  -1.89e-18   delta   0.00e+00
Hydrogen   old mole  -2.21e+06   new mole  -2.21e+06   delta   0.00e+00
Oxygen     old mole   1.11e+06   new mole   1.11e+06   delta   0.00e+00

Iteration 25	Step_size = 100.000000
		Pe_step_size = 10.000000


A and B arrays:

0
   1.00e+02   1.00e+02   0.00e+00  -1.00e+02   2.00e+02   0.00e+00   0.00e+00   0.00e+00
  -1.78e-10

1
   5.52e+05   0.00e+00  -2.29e-01  -5.52e+05   1.10e+06   1.30e-32   1.06e+00   5.00e-01
  -1.35e-02

2
   0.00e+00   1.10e+06  -2.76e-02   0.00e+00   1.00e-09   7.54e-10   1.20e-01   1.00e+00
   2.70e-02

3
   3.80e-04   6.28e-11  -9.86e-01   8.23e-12   7.59e-04   3.77e-10   1.81e-16   0.00e+00
  -1.81e-16

4
  -1.80e-02  -1.02e-03   3.89e-03  -9.63e-01  -3.60e-02  -1.30e-11  -1.77e-14  -0.00e+00
   1.77e-14

5
  -7.59e-04   1.26e-10  -8.64e-04  -2.53e-11   9.28e-10   7.54e-10   5.26e-18   0.00e+00
  -7.15e-18

6
  -2.21e+06   5.02e-10   9.14e-01   2.21e+06  -4.42e+06   3.01e-09  -4.23e+00  -2.00e+00
   5.41e-02

7
   1.10e+06   0.00e+00  -4.43e-01  -1.10e+06   2.21e+06   8.95e-12   5.76e+01   1.00e+00
  -2.70e-02

8
   0.00e+00   0.00e+00   0.00e+00   0.00e+00   0.00e+00   0.00e+00   0.00e+00  -1.00e+00
   1.10e+06


k, l, m	1	7	1
kode: 0	iter: 8	error: 0.000000e+00

solution vector:
     0  C              2.04e-07
     1  N              2.45e-08
     2  Mu             6.95e-11
     3  A(H2O)         4.21e-10
     4  pH            -1.14e-07
     5  Hydrogen       2.06e-01
     6  Oxygen        -1.28e-12
     7  gas moles      2.45e-08

residual vector:
     0  gas moles      0.00e+00
     1  C              0.00e+00
     2  N              0.00e+00
     3  Mu             0.00e+00
     4  A(H2O)         0.00e+00
     5  pH             0.00e+00
     6  Hydrogen       0.00e+00
     7  Oxygen         0.00e+00
     8  gas moles      1.10e+06

Sum of deltas:     0.205947
Factor:   1.0000e+00
C          old la    -10.23106   new la    -10.23106   delta   2.04e-07   delta/c   8.87e-08
N          old la     -1.22152   new la     -1.22152   delta   2.45e-08   delta/c   1.06e-08
Calculated mu: 7.592131e-04
Mu         old mu      0.00076   new mu      0.00076   delta   6.95e-11
A(H2O)     old la     -0.00834   new la     -0.00834   delta   4.21e-10   delta/c   1.83e-10
pH         old la     -3.13251   new la     -3.13251   delta  -1.14e-07   delta/c  -4.96e-08
Hydrogen   old pe     -4.00193   new pe     -3.91249   delta   2.06e-01   delta/c   8.94e-02
Oxygen     old MH2O   1.00e+00   new MH2O   1.00e+00   delta  -1.28e-12   10**d/c   1.00e+00
gas moles  old mol    1.10e+06   new mol    1.10e+06   delta   2.45e-08
C          old mole   5.52e+05   new mole   5.52e+05   delta   0.00e+00
N          old mole   1.10e+06   new mole   1.10e+06   delta   0.00e+00
pH         old mole  -1.89e-18   new mole  -1.89e-18   delta   0.00e+00
Hydrogen   old mole  -2.21e+06   new mole  -2.21e+06   delta   0.00e+00
Oxygen     old mole   1.11e+06   new mole   1.11e+06   delta   0.00e+00

Iteration 26	Step_size = 100.000000
		Pe_step_size = 10.000000


A and B arrays:

0
   1.00e+02   1.00e+02   0.00e+00  -1.00e+02   2.00e+02   0.00e+00   0.00e+00   0.00e+00
  -1.09e-10

1
   5.52e+05   0.00e+00  -2.29e-01  -5.52e+05   1.10e+06   6.76e-32   1.06e+00   5.00e-01
   3.18e-01

2
   0.00e+00   1.10e+06  -2.76e-02   0.00e+00   1.86e-09   1.40e-09   1.20e-01   1.00e+00
  -6.37e-01

3
   3.80e-04   1.16e-10  -9.86e-01   8.23e-12   7.59e-04   6.99e-10   2.98e-11   0.00e+00
  -2.98e-11

4
  -1.80e-02  -1.02e-03   3.89e-03  -9.63e-01  -3.60e-02  -2.39e-11  -1.01e-12  -0.00e+00
   1.01e-12

5
  -7.59e-04   2.33e-10  -8.64e-04  -2.53e-11   1.63e-09   1.40e-09   5.96e-11   0.00e+00
  -5.96e-11

6
  -2.21e+06   9.32e-10   9.14e-01   2.21e+06  -4.42e+06   5.59e-09  -4.23e+00  -2.00e+00
  -1.27e+00

7
   1.10e+06   0.00e+00  -4.43e-01  -1.10e+06   2.21e+06   8.96e-12   5.76e+01   1.00e+00
   6.37e-01

8
   0.00e+00   0.00e+00   0.00e+00   0.00e+00   0.00e+00   0.00e+00   0.00e+00  -1.00e+00
   1.10e+06


k, l, m	1	7	1
kode: 0	iter: 8	error: 0.000000e+00

solution vector:
     0  C             -1.00e-07
     1  N             -5.76e-07
     2  Mu             1.80e-10
     3  A(H2O)        -9.96e-09
     4  pH             3.33e-07
     5  Hydrogen      -9.68e-02
     6  Oxygen        -7.41e-12
     7  gas moles     -5.74e-07

residual vector:
     0  gas moles      0.00e+00
     1  C              0.00e+00
     2  N              0.00e+00
     3  Mu             0.00e+00
     4  A(H2O)         0.00e+00
     5  pH             0.00e+00
     6  Hydrogen       0.00e+00
     7  Oxygen         0.00e+00
     8  gas moles      1.10e+06

Sum of deltas:     0.096831
Factor:   1.0000e+00
C          old la    -10.23106   new la    -10.23106   delta  -1.00e-07   delta/c  -4.34e-08
N          old la     -1.22152   new la     -1.22152   delta  -5.76e-07   delta/c  -2.50e-07
Calculated mu: 7.592132e-04
Mu         old mu      0.00076   new mu      0.00076   delta   1.80e-10
A(H2O)     old la     -0.00834   new la     -0.00834   delta  -9.96e-09   delta/c  -4.33e-09
pH         old la     -3.13251   new la     -3.13251   delta   3.33e-07   delta/c   1.45e-07
[...]
Oxygen     old mole   1.11e+06   new mole   1.11e+06   delta   0.00e+00

Iteration 48	Step_size = 100.000000
		Pe_step_size = 10.000000


A and B arrays:

0
   1.00e+02   1.00e+02   0.00e+00  -1.00e+02   2.00e+02   0.00e+00   0.00e+00   0.00e+00
   1.71e-13

1
   5.52e+05   0.00e+00  -2.29e-01  -5.52e+05   1.10e+06   3.16e-32   1.06e+00   5.00e-01
  -4.04e-06

2
   0.00e+00   1.10e+06  -2.76e-02   0.00e+00   1.40e-09   1.05e-09   1.20e-01   1.00e+00
   8.08e-06

3
   3.80e-04   8.76e-11  -9.86e-01   8.23e-12   7.59e-04   5.26e-10  -2.27e-20   0.00e+00
   2.27e-20

4
  -1.80e-02  -1.02e-03   3.89e-03  -9.63e-01  -3.60e-02  -1.80e-11   4.20e-17  -0.00e+00
  -4.32e-17

5
  -7.59e-04   1.75e-10  -8.64e-04  -2.53e-11   1.23e-09   1.05e-09  -1.84e-18   0.00e+00
  -5.01e-20

6
  -2.21e+06   7.01e-10   9.14e-01   2.21e+06  -4.42e+06   4.21e-09  -4.23e+00  -2.00e+00
   1.62e-05

7
   1.10e+06   0.00e+00  -4.43e-01  -1.10e+06   2.21e+06   8.96e-12   5.76e+01   1.00e+00
  -8.08e-06

8
   0.00e+00   0.00e+00   0.00e+00   0.00e+00   0.00e+00   0.00e+00   0.00e+00  -1.00e+00
   1.10e+06


k, l, m	1	7	1
kode: 0	iter: 8	error: 0.000000e+00

solution vector:
     0  C              3.24e-15
     1  N              7.31e-12
     2  Mu            -2.77e-15
     3  A(H2O)         1.26e-13
     4  pH            -3.59e-12
     5  Hydrogen       1.94e-11
     6  Oxygen         4.98e-17
     7  gas moles     -2.36e-10

residual vector:
     0  gas moles      0.00e+00
     1  C              0.00e+00
     2  N              0.00e+00
     3  Mu             0.00e+00
     4  A(H2O)         0.00e+00
     5  pH             0.00e+00
     6  Hydrogen       0.00e+00
     7  Oxygen         0.00e+00
     8  gas moles      1.10e+06

Sum of deltas:     0.000000
Factor:   1.0000e+00
C          old la    -10.23106   new la    -10.23106   delta   3.24e-15   delta/c   1.41e-15
N          old la     -1.22152   new la     -1.22152   delta   7.31e-12   delta/c   3.18e-12
Calculated mu: 7.592133e-04
Mu         old mu      0.00076   new mu      0.00076   delta  -2.77e-15
A(H2O)     old la     -0.00834   new la     -0.00834   delta   1.26e-13   delta/c   5.49e-14
pH         old la     -3.13251   new la     -3.13251   delta  -3.59e-12   delta/c  -1.56e-12
Hydrogen   old pe     -3.95373   new pe     -3.95373   delta   1.94e-11   delta/c   8.42e-12
Oxygen     old MH2O   1.00e+00   new MH2O   1.00e+00   delta   4.98e-17   10**d/c   1.00e+00
gas moles  old mol    1.10e+06   new mol    1.10e+06   delta  -2.36e-10
C          old mole   5.52e+05   new mole   5.52e+05   delta   0.00e+00
N          old mole   1.10e+06   new mole   1.10e+06   delta   0.00e+00
pH         old mole  -1.89e-18   new mole  -1.89e-18   delta   0.00e+00
Hydrogen   old mole  -2.21e+06   new mole  -2.21e+06   delta   0.00e+00
Oxygen     old mole   1.11e+06   new mole   1.11e+06   delta   0.00e+00

Iteration 49	Step_size = 100.000000
		Pe_step_size = 10.000000


A and B arrays:

0
   1.00e+02   1.00e+02   0.00e+00  -1.00e+02   2.00e+02   0.00e+00   0.00e+00   0.00e+00
  -1.99e-13

1
   5.52e+05   0.00e+00  -2.29e-01  -5.52e+05   1.10e+06   3.16e-32   1.06e+00   5.00e-01
  -2.18e-05

2
   0.00e+00   1.10e+06  -2.76e-02   0.00e+00   1.40e-09   1.05e-09   1.20e-01   1.00e+00
   4.36e-05

3
   3.80e-04   8.76e-11  -9.86e-01   8.23e-12   7.59e-04   5.26e-10   6.31e-19   0.00e+00
  -6.31e-19

4
  -1.80e-02  -1.02e-03   3.89e-03  -9.63e-01  -3.60e-02  -1.80e-11  -2.76e-17  -0.00e+00
   2.85e-17

5
  -7.59e-04   1.75e-10  -8.64e-04  -2.53e-11   1.23e-09   1.05e-09  -2.71e-18   0.00e+00
   8.17e-19

6
  -2.21e+06   7.01e-10   9.14e-01   2.21e+06  -4.42e+06   4.21e-09  -4.23e+00  -2.00e+00
   8.72e-05

7
   1.10e+06   0.00e+00  -4.43e-01  -1.10e+06   2.21e+06   8.96e-12   5.76e+01   1.00e+00
  -4.36e-05

8
   0.00e+00   0.00e+00   0.00e+00   0.00e+00   0.00e+00   0.00e+00   0.00e+00  -1.00e+00
   1.10e+06


k, l, m	1	7	1
kode: 2	iter: 6	error: -1.643221e-14

solution vector:
     0  C              1.59e-14
     1  N              3.94e-11
     2  Mu            -1.49e-14
     3  A(H2O)         6.82e-13
     4  pH            -1.94e-11
     5  Hydrogen       0.00e+00
     6  Oxygen         2.69e-16
     7  gas moles      0.00e+00

residual vector:
     0  gas moles     -1.64e-14
     1  C             -1.88e-19
     2  N              0.00e+00
     3  Mu             0.00e+00
     4  A(H2O)         0.00e+00
     5  pH             0.00e+00
     6  Hydrogen       0.00e+00
     7  Oxygen         0.00e+00
     8  gas moles      1.10e+06
Ineq had infeasible solution, kode 2, iteration 49

A and B arrays:

0
   1.00e+02   1.00e+02   0.00e+00  -1.00e+02   2.00e+02   0.00e+00   0.00e+00   0.00e+00
  -1.99e-13

1
   5.52e+05   0.00e+00  -2.29e-01  -5.52e+05   1.10e+06   3.16e-32   1.06e+00   5.00e-01
  -2.18e-05

2
   0.00e+00   1.10e+06  -2.76e-02   0.00e+00   1.40e-09   1.05e-09   1.20e-01   1.00e+00
   4.36e-05

3
   3.80e-04   8.76e-11  -9.86e-01   8.23e-12   7.59e-04   5.26e-10   6.31e-19   0.00e+00
  -6.31e-19

4
  -1.80e-02  -1.02e-03   3.89e-03  -9.63e-01  -3.60e-02  -1.80e-11  -2.76e-17  -0.00e+00
   2.85e-17

5
  -7.59e-04   1.75e-10  -8.64e-04  -2.53e-11   1.23e-09   1.05e-09  -2.71e-18   0.00e+00
   8.17e-19

6
  -2.21e+06   7.01e-10   9.14e-01   2.21e+06  -4.42e+06   4.21e-09  -4.23e+00  -2.00e+00
   8.72e-05

7
   1.10e+06   0.00e+00  -4.43e-01  -1.10e+06   2.21e+06   8.96e-12   5.76e+01   1.00e+00
  -4.36e-05

8
   0.00e+00   0.00e+00   0.00e+00   0.00e+00   0.00e+00   0.00e+00   0.00e+00  -1.00e+00
   1.10e+06


k, l, m	1	7	1
kode: 0	iter: 8	error: 0.000000e+00

solution vector:
     0  C              1.56e-14
     1  N              3.94e-11
     2  Mu            -1.49e-14
     3  A(H2O)         6.82e-13
     4  pH            -1.94e-11
     5  Hydrogen      -2.39e-10
     6  Oxygen         2.69e-16
     7  gas moles      9.08e-11

residual vector:
     0  gas moles      0.00e+00
     1  C              0.00e+00
     2  N              0.00e+00
     3  Mu             0.00e+00
     4  A(H2O)         0.00e+00
     5  pH             0.00e+00
     6  Hydrogen       0.00e+00
     7  Oxygen         0.00e+00
     8  gas moles      1.10e+06

Sum of deltas:     0.000000
Factor:   1.0000e+00
C          old la    -10.23106   new la    -10.23106   delta   1.56e-14   delta/c   6.76e-15
N          old la     -1.22152   new la     -1.22152   delta   3.94e-11   delta/c   1.71e-11
Calculated mu: 7.592133e-04
Mu         old mu      0.00076   new mu      0.00076   delta  -1.49e-14
A(H2O)     old la     -0.00834   new la     -0.00834   delta   6.82e-13   delta/c   2.96e-13
pH         old la     -3.13251   new la     -3.13251   delta  -1.94e-11   delta/c  -8.42e-12
Hydrogen   old pe     -3.95373   new pe     -3.95373   delta  -2.39e-10   delta/c  -1.04e-10
Oxygen     old MH2O   1.00e+00   new MH2O   1.00e+00   delta   2.69e-16   10**d/c   1.00e+00
gas moles  old mol    1.10e+06   new mol    1.10e+06   delta   9.08e-11
C          old mole   5.52e+05   new mole   5.52e+05   delta   0.00e+00
N          old mole   1.10e+06   new mole   1.10e+06   delta   0.00e+00
pH         old mole  -1.89e-18   new mole  -1.89e-18   delta   0.00e+00
Hydrogen   old mole  -2.21e+06   new mole  -2.21e+06   delta   0.00e+00
Oxygen     old mole   1.11e+06   new mole   1.11e+06   delta   0.00e+00

Iteration 50	Step_size = 100.000000
		Pe_step_size = 10.000000


A and B arrays:

0
   1.00e+02   1.00e+02   0.00e+00  -1.00e+02   2.00e+02   0.00e+00   0.00e+00   0.00e+00
  -2.84e-14

1
   5.52e+05   0.00e+00  -2.29e-01  -5.52e+05   1.10e+06   3.16e-32   1.06e+00   5.00e-01
  -7.68e-06

2
   0.00e+00   1.10e+06  -2.76e-02   0.00e+00   1.40e-09   1.05e-09   1.20e-01   1.00e+00
   1.54e-05

3
   3.80e-04   8.76e-11  -9.86e-01   8.23e-12   7.59e-04   5.26e-10   3.73e-19   0.00e+00
  -3.73e-19

4
  -1.80e-02  -1.02e-03   3.89e-03  -9.63e-01  -3.60e-02  -1.80e-11   7.99e-17  -0.00e+00
  -8.04e-17

5
  -7.59e-04   1.75e-10  -8.64e-04  -2.53e-11   1.23e-09   1.05e-09  -2.27e-18   0.00e+00
   3.84e-19

6
  -2.21e+06   7.01e-10   9.14e-01   2.21e+06  -4.42e+06   4.21e-09  -4.23e+00  -2.00e+00
   3.07e-05

7
   1.10e+06   0.00e+00  -4.43e-01  -1.10e+06   2.21e+06   8.96e-12   5.76e+01   1.00e+00
  -1.54e-05

8
   0.00e+00   0.00e+00   0.00e+00   0.00e+00   0.00e+00   0.00e+00   0.00e+00  -1.00e+00
   1.10e+06


k, l, m	1	7	1
kode: 0	iter: 8	error: 0.000000e+00

solution vector:
     0  C              5.32e-15
     1  N              1.39e-11
     2  Mu            -5.26e-15
     3  A(H2O)         2.40e-13
     4  pH            -6.83e-12
     5  Hydrogen      -1.13e-10
     6  Oxygen        -4.19e-12
     7  gas moles      1.76e-10

residual vector:
     0  gas moles      0.00e+00
     1  C              0.00e+00
     2  N              0.00e+00
     3  Mu             0.00e+00
     4  A(H2O)         0.00e+00
     5  pH             0.00e+00
     6  Hydrogen       0.00e+00
     7  Oxygen         0.00e+00
     8  gas moles      1.10e+06

Sum of deltas:     0.000000
Factor:   1.0000e+00
C          old la    -10.23106   new la    -10.23106   delta   5.32e-15   delta/c   2.31e-15
N          old la     -1.22152   new la     -1.22152   delta   1.39e-11   delta/c   6.04e-12
Calculated mu: 7.592133e-04
Mu         old mu      0.00076   new mu      0.00076   delta  -5.26e-15
A(H2O)     old la     -0.00834   new la     -0.00834   delta   2.40e-13   delta/c   1.04e-13
pH         old la     -3.13251   new la     -3.13251   delta  -6.83e-12   delta/c  -2.97e-12
Hydrogen   old pe     -3.95373   new pe     -3.95373   delta  -1.13e-10   delta/c  -4.91e-11
Oxygen     old MH2O   1.00e+00   new MH2O   1.00e+00   delta  -4.19e-12   10**d/c   1.00e+00
gas moles  old mol    1.10e+06   new mol    1.10e+06   delta   1.76e-10
C          old mole   5.52e+05   new mole   5.52e+05   delta   0.00e+00
N          old mole   1.10e+06   new mole   1.10e+06   delta   0.00e+00
pH         old mole  -1.89e-18   new mole  -1.89e-18   delta   0.00e+00
Hydrogen   old mole  -2.21e+06   new mole  -2.21e+06   delta   0.00e+00
Oxygen     old mole   1.11e+06   new mole   1.11e+06   delta   0.00e+00

Iteration 51	Step_size = 100.000000
		Pe_step_size = 10.000000


A and B arrays:

0
   1.00e+02   1.00e+02   0.00e+00  -1.00e+02   2.00e+02   0.00e+00   0.00e+00   0.00e+00
   1.71e-13

1
   5.52e+05   0.00e+00  -2.29e-01  -5.52e+05   1.10e+06   3.16e-32   1.06e+00   5.00e-01
   6.11e-06

2
   0.00e+00   1.10e+06  -2.76e-02   0.00e+00   1.40e-09   1.05e-09   1.20e-01   1.00e+00
  -1.22e-05

3
   3.80e-04   8.76e-11  -9.86e-01   8.23e-12   7.59e-04   5.26e-10  -9.18e-19   0.00e+00
   9.18e-19

4
  -1.80e-02  -1.02e-03   3.89e-03  -9.63e-01  -3.60e-02  -1.80e-11   6.15e-17  -0.00e+00
  -6.29e-17

5
  -7.59e-04   1.75e-10  -8.64e-04  -2.53e-11   1.23e-09   1.05e-09  -1.06e-19   0.00e+00
  -1.78e-18

6
  -2.21e+06   7.01e-10   9.14e-01   2.21e+06  -4.42e+06   4.21e-09  -4.23e+00  -2.00e+00
  -2.44e-05

7
   1.10e+06   0.00e+00  -4.43e-01  -1.10e+06   2.21e+06   8.96e-12   5.76e+01   1.00e+00
   1.22e-05

8
   0.00e+00   0.00e+00   0.00e+00   0.00e+00   0.00e+00   0.00e+00   0.00e+00  -1.00e+00
   1.10e+06


k, l, m	1	7	1
kode: 0	iter: 8	error: 0.000000e+00

solution vector:
     0  C             -1.63e-15
     1  N             -1.10e-11
     2  Mu             4.18e-15
     3  A(H2O)        -1.91e-13
     4  pH             5.43e-12
     5  Hydrogen       5.59e-10
     6  Oxygen         4.19e-12
     7  gas moles     -1.43e-10

residual vector:
     0  gas moles      0.00e+00
     1  C              0.00e+00
     2  N              0.00e+00
     3  Mu             0.00e+00
     4  A(H2O)         0.00e+00
     5  pH             0.00e+00
     6  Hydrogen       0.00e+00
     7  Oxygen         0.00e+00
     8  gas moles      1.10e+06

Sum of deltas:     0.000000
Factor:   1.0000e+00
C          old la    -10.23106   new la    -10.23106   delta  -1.63e-15   delta/c  -7.08e-16
N          old la     -1.22152   new la     -1.22152   delta  -1.10e-11   delta/c  -4.80e-12
Calculated mu: 7.592133e-04
Mu         old mu      0.00076   new mu      0.00076   delta   4.18e-15
A(H2O)     old la     -0.00834   new la     -0.00834   delta  -1.91e-13   delta/c  -8.29e-14
pH         old la     -3.13251   new la     -3.13251   delta   5.43e-12   delta/c   2.36e-12
Hydrogen   old pe     -3.95373   new pe     -3.95373   delta   5.59e-10   delta/c   2.43e-10
Oxygen     old MH2O   1.00e+00   new MH2O   1.00e+00   delta   4.19e-12   10**d/c   1.00e+00
gas moles  old mol    1.10e+06   new mol    1.10e+06   delta  -1.43e-10
C          old mole   5.52e+05   new mole   5.52e+05   delta   0.00e+00
N          old mole   1.10e+06   new mole   1.10e+06   delta   0.00e+00
pH         old mole  -1.89e-18   new mole  -1.89e-18   delta   0.00e+00
Hydrogen   old mole  -2.21e+06   new mole  -2.21e+06   delta   0.00e+00
Oxygen     old mole   1.11e+06   new mole   1.11e+06   delta   0.00e+00

Iteration 52	Step_size = 100.000000
		Pe_step_size = 10.000000


A and B arrays:

0
   1.00e+02   1.00e+02   0.00e+00  -1.00e+02   2.00e+02   0.00e+00   0.00e+00   0.00e+00
  -1.14e-13

1
   5.52e+05   0.00e+00  -2.29e-01  -5.52e+05   1.10e+06   3.16e-32   1.06e+00   5.00e-01
   5.97e-06

2
   0.00e+00   1.10e+06  -2.76e-02   0.00e+00   1.40e-09   1.05e-09   1.20e-01   1.00e+00
  -1.19e-05

3
   3.80e-04   8.76e-11  -9.86e-01   8.23e-12   7.59e-04   5.26e-10   1.24e-18   0.00e+00
  -1.24e-18

4
  -1.80e-02  -1.02e-03   3.89e-03  -9.63e-01  -3.60e-02  -1.80e-11  -8.33e-17  -0.00e+00
   8.18e-17

5
  -7.59e-04   1.75e-10  -8.64e-04  -2.53e-11   1.23e-09   1.05e-09  -4.01e-18   0.00e+00
   2.12e-18

6
  -2.21e+06   7.01e-10   9.14e-01   2.21e+06  -4.42e+06   4.21e-09  -4.23e+00  -2.00e+00
  -2.39e-05

7
   1.10e+06   0.00e+00  -4.43e-01  -1.10e+06   2.21e+06   8.96e-12   5.76e+01   1.00e+00
   1.19e-05

8
   0.00e+00   0.00e+00   0.00e+00   0.00e+00   0.00e+00   0.00e+00   0.00e+00  -1.00e+00
   1.10e+06


k, l, m	1	7	1
kode: 0	iter: 8	error: 0.000000e+00

solution vector:
     0  C             -8.37e-15
     1  N             -1.08e-11
     2  Mu             4.09e-15
     3  A(H2O)        -1.87e-13
     4  pH             5.31e-12
     5  Hydrogen      -6.76e-10
     6  Oxygen        -4.19e-12
     7  gas moles      1.56e-10

residual vector:
     0  gas moles      0.00e+00
     1  C              0.00e+00
     2  N              0.00e+00
     3  Mu             0.00e+00
     4  A(H2O)         0.00e+00
     5  pH             0.00e+00
     6  Hydrogen       0.00e+00
     7  Oxygen         0.00e+00
     8  gas moles      1.10e+06

Sum of deltas:     0.000000
Factor:   1.0000e+00
C          old la    -10.23106   new la    -10.23106   delta  -8.37e-15   delta/c  -3.64e-15
N          old la     -1.22152   new la     -1.22152   delta  -1.08e-11   delta/c  -4.69e-12
Calculated mu: 7.592133e-04
Mu         old mu      0.00076   new mu      0.00076   delta   4.09e-15
A(H2O)     old la     -0.00834   new la     -0.00834   delta  -1.87e-13   delta/c  -8.11e-14
pH         old la     -3.13251   new la     -3.13251   delta   5.31e-12   delta/c   2.31e-12
Hydrogen   old pe     -3.95373   new pe     -3.95373   delta  -6.76e-10   delta/c  -2.94e-10
Oxygen     old MH2O   1.00e+00   new MH2O   1.00e+00   delta  -4.19e-12   10**d/c   1.00e+00
gas moles  old mol    1.10e+06   new mol    1.10e+06   delta   1.56e-10
C          old mole   5.52e+05   new mole   5.52e+05   delta   0.00e+00
N          old mole   1.10e+06   new mole   1.10e+06   delta   0.00e+00
pH         old mole  -1.89e-18   new mole  -1.89e-18   delta   0.00e+00
Hydrogen   old mole  -2.21e+06   new mole  -2.21e+06   delta   0.00e+00
Oxygen     old mole   1.11e+06   new mole   1.11e+06   delta   0.00e+00
Using solution 1.	
Using gas phase 1.	

-----------------------------------Gas phase-----------------------------------

Total pressure: 200.00      atmospheres          (Peng-Robinson calculation)
    Gas volume:   1.00e+05 liters
  Molar volume:   9.05e-02 liters/mole
   P * Vm / RT:  0.73979  (Compressibility Factor Z) 

                                                        Moles in gas
                                            ----------------------------------
Component         log P           P    phi     Initial       Final       Delta

CO2(g)             2.00   1.000e+02  0.388   5.525e+05   5.525e+05   2.077e-01
N2(g)              2.00   1.000e+02  1.142   5.525e+05   5.525e+05  -8.926e-03

-----------------------------Solution composition------------------------------

	Elements           Molality       Moles

	C                 1.058e+00   1.058e+00
	N                 1.201e-01   1.201e-01

----------------------------Description of solution----------------------------

                                       pH  =   3.133      Charge balance
                                       pe  =   3.954      Adjusted to redox equilibrium
       Specific Conductance (uS/cm, 25 oC) = 293
                          Density (g/cm3)  =   1.02292
                        Activity of water  =   0.981
                           Ionic strength  =   7.592e-04
                       Mass of water (kg)  =   1.000e+00
                 Total alkalinity (eq/kg)  =   3.415e-10
                       Total CO2 (mol/kg)  =   1.058e+00
                      Temperature (deg C)  =  25.00
                           Pressure (atm)  = 200.00
                  Electrical balance (eq)  =  -1.614e-18
 Percent error, 100*(Cat-|An|)/(Cat+|An|)  =  -0.00
                               Iterations  =  52
                                  Total H  = 1.110141e+02
                                  Total O  = 5.762229e+01

----------------------------Distribution of species----------------------------

                                               Log       Log       Log    mole V
   Species          Molality    Activity  Molality  Activity     Gamma   cm3/mol

   H+              7.592e-04   7.370e-04    -3.120    -3.133    -0.013      0.00
   H2O-0.01        8.956e-10   8.956e-10    -9.048    -9.048    -0.000     (0)  
   OH-             1.636e-11   1.586e-11   -10.786   -10.800    -0.013     -3.39
   H2O             5.551e+01   9.810e-01     1.744    -0.008     0.000     17.91
C(-4)         3.956e-33
   CH4             3.956e-33   3.956e-33   -32.403   -32.403     0.000     32.22
C(4)          1.058e+00
   CO2             1.057e+00   1.057e+00     0.024     0.024     0.000     27.30
   HCO3-           7.592e-04   7.364e-04    -3.120    -3.133    -0.013     25.20
   CO3-2           6.638e-11   5.874e-11   -10.178   -10.231    -0.053     -2.60
H(0)          7.547e-18
   H2              3.773e-18   3.774e-18   -17.423   -17.423     0.000     28.52
N(-3)         3.505e-10
   NH4+            3.505e-10   3.397e-10    -9.455    -9.469    -0.014     15.77
   NH3             2.447e-16   2.447e-16   -15.611   -15.611     0.000     24.47
N(0)          1.201e-01
   N2              6.003e-02   6.005e-02    -1.222    -1.222     0.000     29.29
N(3)          0.000e+00
   NO2-            0.000e+00   0.000e+00   -51.102   -51.116    -0.014     24.92
N(5)          0.000e+00
   NO3-            0.000e+00   0.000e+00   -65.460   -65.474    -0.014     29.18
O(0)          0.000e+00
   O2              0.000e+00   0.000e+00   -57.732   -57.732     0.000     30.12

------------------------------Saturation indices-------------------------------

	Phase               SI   log IAP   log K(298 K, 200 atm)

	CH4(g)          -29.76    -32.40   -2.64  CH4
	CO2(g)            1.42      0.02   -1.40  CO2	 Pressure 100.0 atm, phi 0.388.
	H2(g)           -14.32    -17.42   -3.10  H2
	H2O(g)           -1.45     -0.01    1.44  H2O
	N2(g)             2.06     -1.22   -3.28  N2	 Pressure 100.0 atm, phi 1.142.
	NH3(g)          -17.36    -15.61    1.74  NH3
	O2(g)           -54.71    -57.73   -3.02  O2


------------------
End of simulation.
------------------

------------------------------------
Reading input data for simulation 3.
------------------------------------

-----------
End of run.
-----------

