   Input file: PR_EQ_GP
  Output file: PR_EQ_GP.out
Database file: ../database/vreeqc.dat

------------------
Reading data base.
------------------

	KNOBS
	SOLUTION_MASTER_SPECIES
	SOLUTION_SPECIES
	PHASES
	EXCHANGE_MASTER_SPECIES
	EXCHANGE_SPECIES
	SURFACE_MASTER_SPECIES
	SURFACE_SPECIES
	RATES
	END
------------------------------------
Reading input data for simulation 1.
------------------------------------

	DATABASE ../database/vreeqc.dat
	SOLUTION 1
	pH 7 charge
	N 1 N2(g) 2
	C(4) 1 CO2(g) 2
	pressure 200
	END
-------------------------------------------
Beginning of initial solution calculations.
-------------------------------------------

Initial solution 1.	

-----------------------------Solution composition------------------------------

	Elements           Molality       Moles

	C(4)              1.275e+00   1.275e+00  Equilibrium with CO2(g)
	N                 1.016e-01   1.016e-01  Equilibrium with N2(g)

----------------------------Description of solution----------------------------

                                       pH  =   3.093      Charge balance
                                       pe  =   4.000    
       Specific Conductance (uS/cm, 25 oC) = 322
                          Density (g/cm3)  =   1.00624
                        Activity of water  =   0.977
                           Ionic strength  =   8.332e-04
                       Mass of water (kg)  =   1.000e+00
                 Total alkalinity (eq/kg)  =   2.543e-17
                       Total CO2 (mol/kg)  =   1.275e+00
                      Temperature (deg C)  =  25.00
                           Pressure (atm)  = 200.00
                  Electrical balance (eq)  =  -2.543e-17
 Percent error, 100*(Cat-|An|)/(Cat+|An|)  =  -0.00
                               Iterations  =  13
                                  Total H  = 1.110141e+02
                                  Total O  = 5.805731e+01

----------------------------Distribution of species----------------------------

                                            Log       Log         Log     mole V
   Species          Molality    Activity  Molality  Activity     Gamma   cm3/mol

   H+              8.332e-04   8.076e-04    -3.079    -3.093    -0.014      0.00
   OH-             1.486e-11   1.438e-11   -10.828   -10.842    -0.014     -3.13
   H2O             5.551e+01   9.774e-01     1.744    -0.010     0.000     17.90
C(4)          1.275e+00
   CO2             1.274e+00   1.275e+00     0.105     0.105     0.000     26.35
   HCO3-           8.332e-04   8.068e-04    -3.079    -3.093    -0.014     24.32
   CO3-2           6.695e-11   5.886e-11   -10.174   -10.230    -0.056     -3.73
H(0)          7.847e-18
   H2              3.924e-18   3.924e-18   -17.406   -17.406     0.000     20.00
N(0)          1.016e-01
   N2              5.081e-02   5.082e-02    -1.294    -1.294     0.000     30.00
N(3)          0.000e+00
   NO2-            0.000e+00   0.000e+00   -51.111   -51.125    -0.014     (0)  
N(5)          0.000e+00
   NO3-            0.000e+00   0.000e+00   -65.505   -65.520    -0.014     29.01
O(0)          0.000e+00
   O2              0.000e+00   0.000e+00   -57.726   -57.726     0.000     35.00

------------------------------Saturation indices-------------------------------

	Phase               SI   log IAP   log K(298 K, 200 atm)

	CO2(g)            1.50      0.11   -1.39  CO2	 Pressure 100.0 atm, phi 0.464.
	H2(g)           -14.31    -17.41   -3.10  H2
	H2O(g)           -1.45     -0.01    1.44  H2O
	N2(g)             1.71     -1.29   -3.00  N2	 Pressure 100.0 atm, phi 0.972.
	O2(g)           -54.71    -57.73   -3.02  O2


------------------
End of simulation.
------------------

------------------------------------
Reading input data for simulation 2.
------------------------------------

	GAS_PHASE 1
	 pressure 200
	 fixed_pressure
	 volume 1e5
	    N2(g) 100
	    CO2(g) 100
	USE SOLUTION 1
	END
-----------------------------------------
Beginning of batch-reaction calculations.
-----------------------------------------

Reaction step 1.

Using solution 1.	
Using gas phase 1.	

-----------------------------------Gas phase-----------------------------------

Total pressure: 200.00      atmospheres          (Peng-Robinson calculation)
    Gas volume:   1.00e+05 liters
  Molar volume:   9.05e-02 liters/mole
   P * Vm / RT:  0.73979  (Compressibility Factor Z) 

                                                        Moles in gas
                                            ----------------------------------
Component         log P           P    phi     Initial       Final       Delta

CO2(g)             2.00   1.000e+02  0.388   5.525e+05   5.525e+05   2.093e-01
N2(g)              2.00   1.000e+02  1.142   5.525e+05   5.525e+05  -8.875e-03

-----------------------------Solution composition------------------------------

	Elements           Molality       Moles

	C                 1.066e+00   1.066e+00
	N                 1.194e-01   1.194e-01

----------------------------Description of solution----------------------------

                                       pH  =   3.131      Charge balance
                                       pe  =   1.178      Adjusted to redox equilibrium
       Specific Conductance (uS/cm, 25 oC) = 294
                          Density (g/cm3)  =   1.00624
                        Activity of water  =   0.981
                           Ionic strength  =   7.621e-04
                       Mass of water (kg)  =   1.000e+00
                 Total alkalinity (eq/kg)  =   2.335e-17
                       Total CO2 (mol/kg)  =   1.066e+00
                      Temperature (deg C)  =  25.00
                           Pressure (atm)  = 200.00
                  Electrical balance (eq)  =  -2.335e-17
 Percent error, 100*(Cat-|An|)/(Cat+|An|)  =  -0.00
                               Iterations  =  66
                                  Total H  = 1.110141e+02
                                  Total O  = 5.763871e+01

----------------------------Distribution of species----------------------------

                                            Log       Log         Log     mole V
   Species          Molality    Activity  Molality  Activity     Gamma   cm3/mol

   H+              7.621e-04   7.396e-04    -3.118    -3.131    -0.013      0.00
   OH-             1.626e-11   1.575e-11   -10.789   -10.803    -0.014     -3.13
   H2O             5.551e+01   9.809e-01     1.744    -0.008     0.000     17.90
C(-4)         6.543e-11
   CH4             6.543e-11   6.544e-11   -10.184   -10.184     0.000     33.09
C(4)          1.066e+00
   CO2             1.065e+00   1.065e+00     0.027     0.027     0.000     26.35
   HCO3-           7.621e-04   7.389e-04    -3.118    -3.131    -0.013     24.32
   CO3-2           6.660e-11   5.886e-11   -10.177   -10.230    -0.054     -3.73
H(0)          2.905e-12
   H2              1.453e-12   1.453e-12   -11.838   -11.838     0.000     20.00
N(0)          1.194e-01
   N2              5.969e-02   5.970e-02    -1.224    -1.224     0.000     30.00
N(3)          0.000e+00
   NO2-            0.000e+00   0.000e+00   -59.528   -59.542    -0.014     (0)  
N(5)          0.000e+00
   NO3-            0.000e+00   0.000e+00   -79.350   -79.363    -0.014     29.01
O(0)          0.000e+00
   O2              0.000e+00   0.000e+00   -68.860   -68.860     0.000     35.00

------------------------------Saturation indices-------------------------------

	Phase               SI   log IAP   log K(298 K, 200 atm)

	CH4(g)           -7.54    -10.18   -2.64  CH4
	CO2(g)            1.42      0.03   -1.39  CO2	 Pressure 100.0 atm, phi 0.388.
	H2(g)            -8.74    -11.84   -3.10  H2
	H2O(g)           -1.45     -0.01    1.44  H2O
	N2(g)             2.06     -1.22   -3.28  N2	 Pressure 100.0 atm, phi 1.142.
	O2(g)           -65.84    -68.86   -3.02  O2


------------------
End of simulation.
------------------

------------------------------------
Reading input data for simulation 3.
------------------------------------

-----------
End of run.
-----------

