WARNING: Database file from DATABASE keyword is used; command line argument ignored.
   Input file: PR_EQ_GP
  Output file: PR_EQ_GP.out
Database file: ../database/phreeqc.dat

------------------
Reading data base.
------------------

	SOLUTION_MASTER_SPECIES
	SOLUTION_SPECIES
	PHASES
	EXCHANGE_MASTER_SPECIES
	EXCHANGE_SPECIES
	SURFACE_MASTER_SPECIES
	SURFACE_SPECIES
	RATES
	END
------------------------------------
Reading input data for simulation 1.
------------------------------------

	DATABASE ../database/phreeqc.dat
	SOLUTION 1
	pH 7 charge
	N 1 N2(g) 2
	C(4) 1 CO2(g) 2
	pressure 200
	END
-------------------------------------------
Beginning of initial solution calculations.
-------------------------------------------

Initial solution 1.	

-----------------------------Solution composition------------------------------

	Elements           Molality       Moles

	C(4)              1.259e+00   1.259e+00  Equilibrium with CO2(g)
	N                 1.022e-01   1.022e-01  Equilibrium with N2(g)

----------------------------Description of solution----------------------------

                                       pH  =   3.090      Charge balance
                                       pe  =   4.000    
       Specific Conductance (uS/cm, 25 oC) = 323
                          Density (g/cm3)  =   1.02283
                               Volume (L)  =   1.09355
                        Activity of water  =   0.978
                           Ionic strength  =   8.378e-04
                       Mass of water (kg)  =   1.000e+00
                 Total alkalinity (eq/kg)  =   3.399e-10
                       Total CO2 (mol/kg)  =   1.259e+00
                      Temperature (deg C)  =  25.00
                           Pressure (atm)  = 200.00
                  Electrical balance (eq)  =  -7.400e-18
 Percent error, 100*(Cat-|An|)/(Cat+|An|)  =  -0.00
                               Iterations  =  13
                                  Total H  = 1.110141e+02
                                  Total O  = 5.802417e+01

----------------------------Distribution of species----------------------------

                                               Log       Log       Log    mole V
   Species          Molality    Activity  Molality  Activity     Gamma   cm3/mol

   H+              8.378e-04   8.122e-04    -3.077    -3.090    -0.013      0.00
   OH-             1.497e-11   1.449e-11   -10.825   -10.839    -0.014     -3.41
   H2O             5.551e+01   9.777e-01     1.744    -0.010     0.000     17.91
C(4)          1.259e+00
   CO2             1.258e+00   1.258e+00     0.100     0.100     0.000     29.90
   HCO3-           8.378e-04   8.114e-04    -3.077    -3.091    -0.014     24.90
   CO3-2           6.712e-11   5.905e-11   -10.173   -10.229    -0.056     -3.55
H(0)          7.406e-18
   H2              3.703e-18   3.704e-18   -17.431   -17.431     0.000     28.52
N(-3)         3.399e-10
   NH4+            3.399e-10   3.289e-10    -9.469    -9.483    -0.014     18.29
   NH3             2.192e-16   2.192e-16   -15.659   -15.659     0.000     24.61
N(0)          1.022e-01
   N2              5.111e-02   5.112e-02    -1.292    -1.291     0.000     29.29
N(3)          0.000e+00
   NO2-            0.000e+00   0.000e+00   -51.170   -51.184    -0.014     24.92
N(5)          0.000e+00
   NO3-            0.000e+00   0.000e+00   -65.521   -65.535    -0.014     29.30
O(0)          0.000e+00
   O2              0.000e+00   0.000e+00   -57.718   -57.718     0.000     30.12

------------------------------Saturation indices-------------------------------

	Phase               SI   log IAP   log K(298 K, 200 atm)

	CO2(g)            1.67      0.10   -1.57  CO2	 Pressure 100.0 atm, phi 0.464
	H2(g)           -14.23    -17.43   -3.20  H2
	H2O(g)           -1.45     -0.01    1.44  H2O
	N2(g)             1.99     -1.29   -3.28  N2	 Pressure 100.0 atm, phi 0.972
	NH3(g)          -17.37    -15.66    1.71  NH3
	O2(g)           -54.72    -57.72   -3.00  O2


------------------
End of simulation.
------------------

------------------------------------
Reading input data for simulation 2.
------------------------------------

	SOLUTION_SPECIES
		H2O + 0.01e- = H2O-0.01
		log_k -8
	GAS_PHASE 1
	 pressure 200
	 fixed_pressure
	 volume 1e5
	    N2(g) 100
	    CO2(g) 100
	USE SOLUTION 1
	END
-----------------------------------------
Beginning of batch-reaction calculations.
-----------------------------------------

Reaction step 1.

Using solution 1.	
Using gas phase 1.	

-----------------------------------Gas phase-----------------------------------

Total pressure: 200.00      atmospheres          (Peng-Robinson calculation)
    Gas volume:   9.38e+04 liters
  Molar volume:   9.05e-02 liters/mole
   P * Vm / RT:  0.73984  (Compressibility Factor Z) 

                                                        Moles in gas
                                            ----------------------------------
Component         log P           P    phi     Initial       Final       Delta

CO2(g)             2.00   1.000e+02  0.388   5.180e+05   5.180e+05   2.066e-01
N2(g)              2.00   1.000e+02  1.142   5.180e+05   5.180e+05  -8.918e-03

-----------------------------Solution composition------------------------------

	Elements           Molality       Moles

	C                 1.052e+00   1.052e+00
	N                 1.201e-01   1.201e-01

----------------------------Description of solution----------------------------

                                       pH  =   3.129      Charge balance
                                       pe  =   3.954      Adjusted to redox equilibrium
       Specific Conductance (uS/cm, 25 oC) = 296
                          Density (g/cm3)  =   1.02011
                               Volume (L)  =   1.07786
                        Activity of water  =   0.981
                           Ionic strength  =   7.663e-04
                       Mass of water (kg)  =   1.000e+00
                 Total alkalinity (eq/kg)  =   2.664e-10
                       Total CO2 (mol/kg)  =   1.052e+00
                      Temperature (deg C)  =  25.00
                           Pressure (atm)  = 200.00
                  Electrical balance (eq)  =  -5.150e-18
 Percent error, 100*(Cat-|An|)/(Cat+|An|)  =  -0.00
                               Iterations  =  60
                                  Total H  = 1.110141e+02
                                  Total O  = 5.761087e+01

----------------------------Distribution of species----------------------------

                                               Log       Log       Log    mole V
   Species          Molality    Activity  Molality  Activity     Gamma   cm3/mol

   H+              7.663e-04   7.438e-04    -3.116    -3.129    -0.013      0.00
   H2O-0.01        8.957e-09   8.957e-09    -8.048    -8.048    -0.000     (0)  
   OH-             1.638e-11   1.588e-11   -10.786   -10.799    -0.014     -3.41
   H2O             5.551e+01   9.811e-01     1.744    -0.008     0.000     17.91
C(-4)         4.317e-33
   CH4             4.317e-33   4.318e-33   -32.365   -32.365     0.000     32.22
C(4)          1.052e+00
   CO2             1.051e+00   1.051e+00     0.022     0.022     0.000     29.90
   HCO3-           7.663e-04   7.431e-04    -3.116    -3.129    -0.013     24.90
   CO3-2           6.677e-11   5.906e-11   -10.175   -10.229    -0.053     -3.55
H(0)          7.684e-18
   H2              3.842e-18   3.843e-18   -17.415   -17.415     0.000     28.52
N(-3)         3.560e-10
   NH4+            3.560e-10   3.450e-10    -9.449    -9.462    -0.014     18.29
   NH3             2.510e-16   2.511e-16   -15.600   -15.600     0.000     24.61
N(0)          1.201e-01
   N2              6.003e-02   6.004e-02    -1.222    -1.222     0.000     29.29
N(3)          0.000e+00
   NO2-            0.000e+00   0.000e+00   -51.118   -51.132    -0.014     24.92
N(5)          0.000e+00
   NO3-            0.000e+00   0.000e+00   -65.484   -65.497    -0.014     29.30
O(0)          0.000e+00
   O2              0.000e+00   0.000e+00   -57.747   -57.747     0.000     30.12

------------------------------Saturation indices-------------------------------

	Phase               SI   log IAP   log K(298 K, 200 atm)

	CH4(g)          -29.41    -32.36   -2.96  CH4
	CO2(g)            1.59      0.02   -1.57  CO2	 Pressure 100.0 atm, phi 0.388
	H2(g)           -14.21    -17.42   -3.20  H2
	H2O(g)           -1.45     -0.01    1.44  H2O
	N2(g)             2.06     -1.22   -3.28  N2	 Pressure 100.0 atm, phi 1.142
	NH3(g)          -17.31    -15.60    1.71  NH3
	O2(g)           -54.75    -57.75   -3.00  O2


------------------
End of simulation.
------------------

------------------------------------
Reading input data for simulation 3.
------------------------------------

------------------------------
End of Run after 0.01 Seconds.
------------------------------

