   Input file: PR_equil
  Output file: PR_equil.out
Database file: ../database/phreeqc.dat

------------------
Reading data base.
------------------

	SOLUTION_MASTER_SPECIES
	SOLUTION_SPECIES
	PHASES
	EXCHANGE_MASTER_SPECIES
	EXCHANGE_SPECIES
	SURFACE_MASTER_SPECIES
	SURFACE_SPECIES
	RATES
	END
------------------------------------
Reading input data for simulation 1.
------------------------------------

	DATABASE ../database/phreeqc.dat
	GAS_PHASE 7
	    fixed_volume
	    equilibrate 7
	    N2(g)
	    CO2(g)
	SOLUTION 7
	pH 7 charge
	    C(4) 1 CO2(g) 1
	    N 1 N2(g) 2
		pressure 110
	END
-------------------------------------------
Beginning of initial solution calculations.
-------------------------------------------

Initial solution 7.	

-----------------------------Solution composition------------------------------

	Elements           Molality       Moles

	C(4)              2.868e-01   2.868e-01  Equilibrium with CO2(g)
	N                 1.139e-01   1.139e-01  Equilibrium with N2(g)

----------------------------Description of solution----------------------------

                                       pH  =   3.430      Charge balance
                                       pe  =   4.000    
       Specific Conductance (uS/cm, 25 oC) = 147
                          Density (g/cm3)  =   1.00692
                        Activity of water  =   0.994
                           Ionic strength  =   3.796e-04
                       Mass of water (kg)  =   1.000e+00
                 Total alkalinity (eq/kg)  =   1.594e-11
                       Total CO2 (mol/kg)  =   2.868e-01
                      Temperature (deg C)  =  25.00
                           Pressure (atm)  = 110.00
                  Electrical balance (eq)  =  -5.830e-19
 Percent error, 100*(Cat-|An|)/(Cat+|An|)  =  -0.00
                               Iterations  =  12
                                  Total H  = 1.110132e+02
                                  Total O  = 5.608011e+01

----------------------------Distribution of species----------------------------

                                               Log       Log       Log    mole V
   Species          Molality    Activity  Molality  Activity     Gamma   cm3/mol

   H+              3.796e-04   3.715e-04    -3.421    -3.430    -0.009      0.00
   OH-             3.020e-11   2.954e-11   -10.520   -10.530    -0.010     -3.70
   H2O             5.551e+01   9.942e-01     1.744    -0.003     0.000     17.98
C(4)          2.868e-01
   CO2             2.864e-01   2.864e-01    -0.543    -0.543     0.000     26.19
   HCO3-           3.796e-04   3.714e-04    -3.421    -3.430    -0.010     24.92
   CO3-2           5.803e-11   5.314e-11   -10.236   -10.275    -0.038     -3.24
H(0)          1.721e-18
   H2              8.605e-19   8.605e-19   -18.065   -18.065     0.000     28.55
N(-3)         1.594e-11
   NH4+            1.594e-11   1.559e-11   -10.797   -10.807    -0.010     15.63
   NH3             2.299e-17   2.299e-17   -16.638   -16.638     0.000     24.40
N(0)          1.139e-01
   N2              5.693e-02   5.693e-02    -1.245    -1.245     0.000     29.29
N(3)          0.000e+00
   NO2-            0.000e+00   0.000e+00   -49.818   -49.828    -0.010     24.93
N(5)          0.000e+00
   NO3-            0.000e+00   0.000e+00   -63.504   -63.514    -0.010     29.29
O(0)          0.000e+00
   O2              0.000e+00   0.000e+00   -56.354   -56.354     0.000     30.24

------------------------------Saturation indices-------------------------------

	Phase               SI   log IAP   log K(298 K, 110 atm)

	CO2(g)            0.88     -0.54   -1.43  CO2	 Pressure  10.0 atm, phi 0.945.
	H2(g)           -14.96    -18.07   -3.10  H2
	H2O(g)           -1.47     -0.00    1.47  H2O
	N2(g)             1.84     -1.24   -3.08  N2	 Pressure 100.0 atm, phi 0.972.
	NH3(g)          -18.48    -16.64    1.84  NH3
	O2(g)           -53.39    -56.35   -2.96  O2


--------------------------------------------------------
Beginning of initial gas_phase-composition calculations.
--------------------------------------------------------

Gas_Phase 7.	

-----------------------------------Gas phase-----------------------------------

Total pressure: 106.67      atmospheres 
    Gas volume:   1.00e+00 liters
  Molar volume:   2.29e-01 liters/mole

                                                        Moles in gas
                                            ----------------------------------
Component                log P           P     Initial       Final       Delta

CO2(g)                    1.00   9.453e+00   3.864e-01   3.864e-01   0.000e+00
N2(g)                     2.00   9.722e+01   3.974e+00   3.974e+00   0.000e+00

WARNING: While initializing gas phase composition by equilibrating:
         Found definitions of gas' critical temperature and pressure.
         Going to use Peng-Robinson in subsequent calculations.

-----------------------------------------
Beginning of batch-reaction calculations.
-----------------------------------------

Reaction step 1.

Using solution 7.	
Using gas phase 7.	Gas phase after simulation 1.

-----------------------------------Gas phase-----------------------------------

Total pressure: 103.92      atmospheres          (Peng-Robinson calculation)
    Gas volume:   1.00e+00 liters
  Molar volume:   2.26e-01 liters/mole
   P * Vm / RT:  0.95929  (Compressibility Factor Z) 

                                                        Moles in gas
                                            ----------------------------------
Component         log P           P    phi     Initial       Final       Delta

CO2(g)             1.02   1.058e+01  0.688   3.864e-01   4.508e-01   6.446e-02
N2(g)              1.97   9.334e+01  0.974   3.974e+00   3.977e+00   3.300e-03

-----------------------------Solution composition------------------------------

	Elements           Molality       Moles

	C                 2.223e-01   2.223e-01
	N                 1.073e-01   1.073e-01

----------------------------Description of solution----------------------------

                                       pH  =   3.486      Charge balance
                                       pe  =   3.921      Adjusted to redox equilibrium
       Specific Conductance (uS/cm, 25 oC) = 129
                          Density (g/cm3)  =   1.00554
                        Activity of water  =   0.995
                           Ionic strength  =   3.331e-04
                       Mass of water (kg)  =   1.000e+00
                 Total alkalinity (eq/kg)  =   1.820e-11
                       Total CO2 (mol/kg)  =   2.223e-01
                      Temperature (deg C)  =  25.00
                           Pressure (atm)  = 103.92
                  Electrical balance (eq)  =  -2.260e-12
 Percent error, 100*(Cat-|An|)/(Cat+|An|)  =  -0.00
                               Iterations  =  30
                                  Total H  = 1.110132e+02
                                  Total O  = 5.595120e+01

----------------------------Distribution of species----------------------------

                                               Log       Log       Log    mole V
   Species          Molality    Activity  Molality  Activity     Gamma   cm3/mol

   H+              3.331e-04   3.265e-04    -3.477    -3.486    -0.009      0.00
   OH-             3.418e-11   3.348e-11   -10.466   -10.475    -0.009     -3.72
   H2O             5.551e+01   9.953e-01     1.744    -0.002     0.000     17.99
C(-4)         2.567e-36
   CH4             2.567e-36   2.568e-36   -35.591   -35.590     0.000     32.22
C(4)          2.223e-01
   CO2             2.220e-01   2.220e-01    -0.654    -0.654     0.000     26.11
   HCO3-           3.331e-04   3.263e-04    -3.477    -3.486    -0.009     24.90
   CO3-2           5.733e-11   5.278e-11   -10.242   -10.278    -0.036     -3.29
H(0)          1.929e-18
   H2              9.643e-19   9.644e-19   -18.016   -18.016     0.000     28.56
N(-3)         1.594e-11
   NH4+            1.594e-11   1.561e-11   -10.797   -10.807    -0.009     15.62
   NH3             2.626e-17   2.626e-17   -16.581   -16.581     0.000     24.40
N(0)          1.073e-01
   N2              5.363e-02   5.363e-02    -1.271    -1.271     0.000     29.29
N(3)          0.000e+00
   NO2-            0.000e+00   0.000e+00   -49.847   -49.856    -0.009     24.93
N(5)          0.000e+00
   NO3-            0.000e+00   0.000e+00   -63.580   -63.590    -0.009     29.29
O(0)          0.000e+00
   O2              0.000e+00   0.000e+00   -56.447   -56.446     0.000     30.25

------------------------------Saturation indices-------------------------------

	Phase               SI   log IAP   log K(298 K, 104 atm)

	CH4(g)          -32.85    -35.59   -2.74  CH4
	CO2(g)            0.78     -0.65   -1.43  CO2	 Pressure  10.6 atm, phi 0.688.
	H2(g)           -14.91    -18.02   -3.10  H2
	H2O(g)           -1.47     -0.00    1.47  H2O
	N2(g)             1.96     -1.27   -3.23  N2	 Pressure  93.3 atm, phi 0.974.
	NH3(g)          -18.35    -16.58    1.77  NH3
	O2(g)           -53.49    -56.45   -2.96  O2


------------------
End of simulation.
------------------

------------------------------------
Reading input data for simulation 2.
------------------------------------

	USE solution 7
	GAS_PHASE 8
	    fixed_volume
	    volume 1e-8
	    N2(g) 0
	    CO2(g) 0
	SAVE gas_phase 8
	DUMP
	 file dump
	 -gas_phase 8
	SELECTED_OUTPUT
	 reset false
	 file gas_8
	 high_precision true
	USER_PUNCH
	  1 if step_no = 0 then goto 100
	  2 sc$ = CHR$(59)
	 10 punch 'GAS_PHASE_MODIFY 8' + EOL$
	 30 punch  '  -volume             1' + EOL$
	 40 punch '-comp  CO2(g)' + EOL$
	 60 punch '-moles ' + STR$(1e8 * GAS("CO2(g)")) + EOL$
	 70 punch '-comp N2(g) ' + sc$ + '-moles ' + STR$(1e8 * GAS("N2(g)")) + EOL$
	 100 end
	END
-----------------------------------------
Beginning of batch-reaction calculations.
-----------------------------------------

Reaction step 1.

WARNING: USER_PUNCH: Headings count doesn't match number of calls to PUNCH.

Using solution 7.	
Using gas phase 8.	

-----------------------------------Gas phase-----------------------------------

Total pressure: 114.75      atmospheres          (Peng-Robinson calculation)
    Gas volume:   1.00e-08 liters
  Molar volume:   2.03e-01 liters/mole
   P * Vm / RT:  0.95136  (Compressibility Factor Z) 

                                                        Moles in gas
                                            ----------------------------------
Component         log P           P    phi     Initial       Final       Delta

CO2(g)             1.16   1.445e+01  0.658   0.000e+00   6.206e-09   6.206e-09
N2(g)              2.00   1.003e+02  0.975   0.000e+00   4.309e-08   4.309e-08

-----------------------------Solution composition------------------------------

	Elements           Molality       Moles

	C                 2.868e-01   2.868e-01
	N                 1.139e-01   1.139e-01

----------------------------Description of solution----------------------------

                                       pH  =   3.429      Charge balance
                                       pe  =   4.001      Adjusted to redox equilibrium
       Specific Conductance (uS/cm, 25 oC) = 147
                          Density (g/cm3)  =   1.00711
                        Activity of water  =   0.994
                           Ionic strength  =   3.804e-04
                       Mass of water (kg)  =   1.000e+00
                 Total alkalinity (eq/kg)  =   1.594e-11
                       Total CO2 (mol/kg)  =   2.868e-01
                      Temperature (deg C)  =  25.00
                           Pressure (atm)  = 114.75
                  Electrical balance (eq)  =   1.535e-16
 Percent error, 100*(Cat-|An|)/(Cat+|An|)  =   0.00
                               Iterations  =  72
                                  Total H  = 1.110132e+02
                                  Total O  = 5.608011e+01

----------------------------Distribution of species----------------------------

                                               Log       Log       Log    mole V
   Species          Molality    Activity  Molality  Activity     Gamma   cm3/mol

   H+              3.804e-04   3.723e-04    -3.420    -3.429    -0.009      0.00
   OH-             3.027e-11   2.960e-11   -10.519   -10.529    -0.010     -3.68
   H2O             5.551e+01   9.942e-01     1.744    -0.003     0.000     17.98
C(-4)         2.117e-36
   CH4             2.117e-36   2.117e-36   -35.674   -35.674     0.000     32.22
C(4)          2.868e-01
   CO2             2.864e-01   2.864e-01    -0.543    -0.543     0.000     26.25
   HCO3-           3.804e-04   3.721e-04    -3.420    -3.429    -0.010     24.94
   CO3-2           5.835e-11   5.343e-11   -10.234   -10.272    -0.038     -3.21
H(0)          1.709e-18
   H2              8.547e-19   8.548e-19   -18.068   -18.068     0.000     28.55
N(-3)         1.594e-11
   NH4+            1.594e-11   1.559e-11   -10.797   -10.807    -0.010     15.63
   NH3             2.291e-17   2.291e-17   -16.640   -16.640     0.000     24.41
N(0)          1.139e-01
   N2              5.693e-02   5.693e-02    -1.245    -1.245     0.000     29.29
N(3)          0.000e+00
   NO2-            0.000e+00   0.000e+00   -49.816   -49.826    -0.010     24.93
N(5)          0.000e+00
   NO3-            0.000e+00   0.000e+00   -63.501   -63.510    -0.010     29.28
O(0)          0.000e+00
   O2              0.000e+00   0.000e+00   -56.353   -56.353     0.000     30.24

------------------------------Saturation indices-------------------------------

	Phase               SI   log IAP   log K(298 K, 115 atm)

	CH4(g)          -32.95    -35.67   -2.73  CH4
	CO2(g)            0.88     -0.54   -1.43  CO2	 Pressure  14.4 atm, phi 0.658.
	H2(g)           -14.97    -18.07   -3.10  H2
	H2O(g)           -1.47     -0.00    1.47  H2O
	N2(g)             1.99     -1.24   -3.23  N2	 Pressure 100.3 atm, phi 0.975.
	NH3(g)          -18.41    -16.64    1.77  NH3
	O2(g)           -53.39    -56.35   -2.96  O2


------------------
End of simulation.
------------------

------------------------------------
Reading input data for simulation 3.
------------------------------------

	SELECTED_OUTPUT
	 selected_out false
	 GAS_PHASE_MODIFY 8
		  -volume             1
		      -comp  CO2(g)
		-moles   6.206085923469e-01
		-comp N2(g) 
	-moles   4.309460871482e+00
	USE gas_phase 8
	 USE solution 7
	END
-----------------------------------------
Beginning of batch-reaction calculations.
-----------------------------------------

Reaction step 1.

Using solution 7.	
Using gas phase 8.	Gas phase after simulation 2.

-----------------------------------Gas phase-----------------------------------

Total pressure: 114.75      atmospheres          (Peng-Robinson calculation)
    Gas volume:   1.00e+00 liters
  Molar volume:   2.03e-01 liters/mole
   P * Vm / RT:  0.95136  (Compressibility Factor Z) 

                                                        Moles in gas
                                            ----------------------------------
Component         log P           P    phi     Initial       Final       Delta

CO2(g)             1.16   1.445e+01  0.658   6.206e-01   6.206e-01   5.142e-09
N2(g)              2.00   1.003e+02  0.975   4.309e+00   4.309e+00   4.261e-08

-----------------------------Solution composition------------------------------

	Elements           Molality       Moles

	C                 2.868e-01   2.868e-01
	N                 1.139e-01   1.139e-01

----------------------------Description of solution----------------------------

                                       pH  =   3.429      Charge balance
                                       pe  =   4.001      Adjusted to redox equilibrium
       Specific Conductance (uS/cm, 25 oC) = 147
                          Density (g/cm3)  =   1.00711
                        Activity of water  =   0.994
                           Ionic strength  =   3.804e-04
                       Mass of water (kg)  =   1.000e+00
                 Total alkalinity (eq/kg)  =   1.594e-11
                       Total CO2 (mol/kg)  =   2.868e-01
                      Temperature (deg C)  =  25.00
                           Pressure (atm)  = 114.75
                  Electrical balance (eq)  =   1.844e-16
 Percent error, 100*(Cat-|An|)/(Cat+|An|)  =   0.00
                               Iterations  =  41
                                  Total H  = 1.110132e+02
                                  Total O  = 5.608011e+01

----------------------------Distribution of species----------------------------

                                               Log       Log       Log    mole V
   Species          Molality    Activity  Molality  Activity     Gamma   cm3/mol

   H+              3.804e-04   3.723e-04    -3.420    -3.429    -0.009      0.00
   OH-             3.027e-11   2.960e-11   -10.519   -10.529    -0.010     -3.68
   H2O             5.551e+01   9.942e-01     1.744    -0.003     0.000     17.98
C(-4)         2.117e-36
   CH4             2.117e-36   2.117e-36   -35.674   -35.674     0.000     32.22
C(4)          2.868e-01
   CO2             2.864e-01   2.864e-01    -0.543    -0.543     0.000     26.25
   HCO3-           3.804e-04   3.721e-04    -3.420    -3.429    -0.010     24.94
   CO3-2           5.835e-11   5.343e-11   -10.234   -10.272    -0.038     -3.21
H(0)          1.709e-18
   H2              8.547e-19   8.548e-19   -18.068   -18.068     0.000     28.55
N(-3)         1.594e-11
   NH4+            1.594e-11   1.559e-11   -10.797   -10.807    -0.010     15.63
   NH3             2.291e-17   2.291e-17   -16.640   -16.640     0.000     24.41
N(0)          1.139e-01
   N2              5.693e-02   5.693e-02    -1.245    -1.245     0.000     29.29
N(3)          0.000e+00
   NO2-            0.000e+00   0.000e+00   -49.816   -49.826    -0.010     24.93
N(5)          0.000e+00
   NO3-            0.000e+00   0.000e+00   -63.501   -63.510    -0.010     29.28
O(0)          0.000e+00
   O2              0.000e+00   0.000e+00   -56.353   -56.353     0.000     30.24

------------------------------Saturation indices-------------------------------

	Phase               SI   log IAP   log K(298 K, 115 atm)

	CH4(g)          -32.95    -35.67   -2.73  CH4
	CO2(g)            0.88     -0.54   -1.43  CO2	 Pressure  14.4 atm, phi 0.658.
	H2(g)           -14.97    -18.07   -3.10  H2
	H2O(g)           -1.47     -0.00    1.47  H2O
	N2(g)             1.99     -1.24   -3.23  N2	 Pressure 100.3 atm, phi 0.975.
	NH3(g)          -18.41    -16.64    1.77  NH3
	O2(g)           -53.39    -56.35   -2.96  O2


------------------
End of simulation.
------------------

------------------------------------
Reading input data for simulation 4.
------------------------------------

-----------
End of run.
-----------

