   Input file: PR_EQ
  Output file: PR_EQ.out
Database file: ../database/Amm.dat

------------------
Reading data base.
------------------

	SOLUTION_MASTER_SPECIES
	SOLUTION_SPECIES
	PHASES
	EXCHANGE_MASTER_SPECIES
	EXCHANGE_SPECIES
	SURFACE_MASTER_SPECIES
	SURFACE_SPECIES
	END
------------------------------------
Reading input data for simulation 1.
------------------------------------

	database ../database/Amm.dat
	SOLUTION 0
	 N 1 N2(g) -0.1
	 C(-4) 1 CH4(g) 1.3
	SOLUTION_MASTER_SPECIES
	Amm		AmmH+	0.0	AmmH	17.0
	Mth		Mth	0.0	Mth	16
	Sg		HSg-	1.0	Sg	32
	SOLUTION_SPECIES
	AmmH+ = AmmH+
		gamma	2.5	0.0
		dw	 1.98e-9
		millero 17.47 -3.400e-3 7.600e-4 # From Millero, 1971, d, e and f not reported
	AmmH+ = Amm + H+
		log_k	-9.252
		delta_h 12.48	kcal
		analytical_expression    0.6322    -0.001225     -2835.76
		dw	 2.28e-9
	Mth = Mth
	HSg- = HSg-
		gamma	3.5	0.0
		dw	 1.73e-9
	HSg- = Sg-2 + H+
		log_k	-12.918
		delta_h 12.1	kcal
		gamma	5.0	0.0
		dw	 0.731e-9
	HSg- + H+ = H2Sg
		log_k	6.994
		delta_h -5.30	kcal
		analytical_expression  -11.17   0.02386  3279.0
		dw	 2.1e-9
	H2O = OH- + H+
		log_k	-14.0
		delta_h 13.362	kcal
		analytical_expression	-283.971	-0.05069842	13323.0	102.24447	-1119669.0
		gamma	3.5	0.0
		dw	 5.27e-9
		delta_v -22
	CO3-2 + H+ = HCO3-
		log_k	10.329
		delta_h -3.561	kcal
		analytical_expression	107.8871	0.03252849	-5151.79	-38.92561	563713.9
		gamma	5.4	0.0
		dw	 1.18e-9
		millero 21.07 0.185 -0.002248 2.29 -0.006644 -3.667E-06
		delta_v 28
	CO3-2 + 2 H+ = CO2 + H2O
		log_k	16.681
		delta_h -5.738	kcal
		analytical_expression	464.1965	0.09344813	-26986.16	-165.75951	2248628.9
		dw	 1.92e-9
		delta_v 27
	PHASES
	Amm(g)
		Amm = Amm
		log_k	   1.7966
		analytical_expression -1.8758e+001 3.3670e-004 2.5113e+003 4.8619e+000 3.9192e+001
		t_c  405.6 # critical T, K
		p_c   111.3 # critical P, atm
		omega 0.25 #  acentric factor
		delta_v 30 # (estimated, not checked)
	CH4(g)
		CH4 = CH4
		log_k	   -2.8502
		analytical_expression -2.4027e+001 4.7146e-003 3.7227e+002 6.4264e+000 2.3362e+005
		T_c  190.6 # critical T, K
		p_c   45.40 # critical P, atm
		omega 0.008 #  acentric factor
		delta_v 33
	Mth(g)
		Mth = Mth
		log_k	   -2.8502
		analytical_expression -2.4027e+001 4.7146e-003 3.7227e+002 6.4264e+000 2.3362e+005
		T_c  190.6 # critical T, K
		p_c   45.40 # critical P, atm
		omega 0.008 #  acentric factor
		delta_v 33
	CO2(g)
		CO2 = CO2
		log_k	-1.468
		delta_h  -4.776 kcal
		analytical_expression	110.495	0.016823	-7276.04	-40.45154	669365.0
		t_c  304.2 # critical T, K
		p_c   72.80 # critical P, atm
		omega 0.225 #  acentric factor
		delta_v   31.65 # 0   0  0   0 -6.7E-08   1.56E-05
	H2(g)
		H2 = H2
		log_k	   -3.1050
		delta_h -4.184  kJ
		analytical_expression   -9.3114e+000    4.6473e-003   -4.9335e+001    1.4341e+000    1.2815e+005
		t_c  33.2 # critical T, K
		p_c   12.80 # critical P, atm
		omega 0.225 #  acentric factor
		delta_v 30 # (estimated, not checked)
	H2O(g)
		H2O = H2O
		log_k  1.506
	 delta_h -44.03 kJ
		T_c  647.3 # critical T, K
		p_c  217.60 # critical P, atm
		omega 0.344 #  acentric factor
		delta_v 0# + temperature and pressure terms
	H2S(g)
		H2S  =  H+ + HS-
		log_k	   -7.9759
		analytical_expression -9.7354e+001 -3.1576e-002 1.8285e+003 3.7440e+001 2.8560e+001
		T_c  373.2 # critical T, K
		p_c  88.20 # critical P, atm
		omega 0.1 #  acentric factor
		delta_v 30
	H2Sg(g)
		H2Sg  =  H+ + HSg-
		log_k	   -7.9759
		analytical_expression -9.7354e+001 -3.1576e-002 1.8285e+003 3.7440e+001 2.8560e+001
		T_c  373.2 # critical T, K
		p_c  88.20 # critical P, atm
		omega 0.1 #  acentric factor
		delta_v 30
	N2(g)
		N2 = N2
		log_k		 -3.1864
		analytical_expression -58.453 1.81800E-03  3199  17.909 -27460
		T_c  126.2 # critical T, K
		p_c   33.50 # critical P, atm
		omega 0.039 #  acentric factor
		delta_v 30
	O2(g)
		O2 = O2
		log_k   -2.8983
		analytical_expression -7.5001 7.8981e-003 0.0 0.0 2.0027e+005
		T_c  154.6 # critical T, K
		p_c   49.80 # critical P, atm
		omega 0.021 #  acentric factor
		delta_v 35
	Calcite
		CaCO3 = CO3-2 + Ca+2
		log_k	-8.48
		delta_h -2.297 kcal
		analytical_expression	-171.9065	-0.077993	2839.319	71.595
		delta_v -50 cm3/mol
	Strontianite
		SrCO3 = Sr+2 + CO3-2
		log_k	-9.271
		delta_h -0.400 kcal
		analytical_expression	155.0305	0.0	-7239.594	-56.58638
	EQUILIBRIUM_PHASES
	 CO2(g) 2
	 Calcite
	REACTION_TEMPERATURE
	 25 50 25
	END
-------------------------------------------
Beginning of initial solution calculations.
-------------------------------------------

Initial solution 0.	

-----------------------------Solution composition------------------------------

	Elements           Molality       Moles

	C(-4)             2.671e-02   2.671e-02  Equilibrium with CH4(g)
	N                 1.060e-03   1.060e-03  Equilibrium with N2(g)

----------------------------Description of solution----------------------------

                                       pH  =   7.000    
                                       pe  =   4.000    
       Specific Conductance (uS/cm, 25 oC) = 0
                          Density (g/cm3)  =   0.99705
                        Activity of water  =   1.000
                           Ionic strength  =   1.001e-07
                       Mass of water (kg)  =   1.000e+00
                 Total alkalinity (eq/kg)  =   6.180e-11
                    Total carbon (mol/kg)  =   2.671e-02
                       Total CO2 (mol/kg)  =   0.000e+00
                      Temperature (deg C)  =  25.00
                  Electrical balance (eq)  =  -6.180e-11
 Percent error, 100*(Cat-|An|)/(Cat+|An|)  =  -0.03
                               Iterations  =   6
                                  Total H  = 1.111193e+02
                                  Total O  = 5.550622e+01

----------------------------Distribution of species----------------------------

                                                   Log       Log         Log 
   Species                 Molality    Activity  Molality  Activity     Gamma

   OH-                    1.001e-07   1.001e-07    -7.000    -7.000    -0.000
   H+                     1.000e-07   1.000e-07    -7.000    -7.000    -0.000
   H2O                    5.551e+01   9.995e-01     1.744    -0.000     0.000
C(-4)            2.671e-02
   CH4                    2.671e-02   2.671e-02    -1.573    -1.573     0.000
H(0)             1.416e-25
   H2                     7.079e-26   7.079e-26   -25.150   -25.150     0.000
N(0)             1.060e-03
   N2                     5.298e-04   5.298e-04    -3.276    -3.276     0.000
N(3)             2.465e-37
   NO2-                   2.465e-37   2.464e-37   -36.608   -36.608    -0.000
N(5)             0.000e+00
   NO3-                   0.000e+00   0.000e+00   -43.178   -43.179    -0.000
O(0)             0.000e+00
   O2                     0.000e+00   0.000e+00   -42.080   -42.080     0.000

------------------------------Saturation indices-------------------------------

	Phase               SI   log IAP   log K(298 K,   1 atm)

	CH4(g)            1.27**   -1.57   -2.84  CH4	 Pressure  20.0 atm, phi 0.957.
	H2(g)           -22.05    -25.15   -3.10  H2
	H2O(g)           -1.51     -0.00    1.51  H2O
	N2(g)            -0.10**   -3.28   -3.18  N2	 Pressure   0.8 atm, phi 1.000.
	O2(g)           -39.19    -42.08   -2.89  O2
	                      ** SI from Peng-Robinson fugacity - Delta(V) * (P - 1) / 2.3RT.

-----------------------------------------
Beginning of batch-reaction calculations.
-----------------------------------------

Reaction step 1.

Using solution 0.	
Using pure phase assemblage 1.	
Using temperature 1.	

-------------------------------Phase assemblage--------------------------------

                                                      Moles in assemblage
Phase               SI  log IAP  log K(T, P)   Initial       Final       Delta

Calcite           0.00    -8.48     -8.48    1.000e+01   9.954e+00  -4.600e-02
CO2(g)            1.66**   0.20     -1.46    1.000e+01   8.410e+00  -1.590e+00
                       ** SI from Peng-Robinson fugacity - Delta(V) * (P - 1) / 2.3RT.

-----------------------------Solution composition------------------------------

	Elements           Molality       Moles

	C                 1.664e+00   1.663e+00
	Ca                4.604e-02   4.600e-02
	N                 1.061e-03   1.060e-03

----------------------------Description of solution----------------------------

                                       pH  =   4.957      Charge balance
                                       pe  =  -1.684      Adjusted to redox equilibrium
       Specific Conductance (uS/cm, 25 oC) = 3032
                          Density (g/cm3)  =   0.99705
                        Activity of water  =   0.971
                           Ionic strength  =   1.126e-01
                       Mass of water (kg)  =   9.992e-01
                 Total alkalinity (eq/kg)  =   9.209e-02
                       Total CO2 (mol/kg)  =   1.637e+00
                      Temperature (deg C)  =  25.00
                  Electrical balance (eq)  =  -6.174e-11
 Percent error, 100*(Cat-|An|)/(Cat+|An|)  =  -0.00
                               Iterations  =  22
                                  Total H  = 1.111193e+02
                                  Total O  = 5.882443e+01

----------------------------Distribution of species----------------------------

                                                   Log       Log         Log 
   Species                 Molality    Activity  Molality  Activity     Gamma

   H+                     1.346e-05   1.105e-05    -4.871    -4.957    -0.086
   OH-                    1.169e-09   8.798e-10    -8.932    -9.056    -0.123
   H2O                    5.551e+01   9.711e-01     1.744    -0.013     0.000
C(-4)            2.673e-02
   CH4                    2.673e-02   2.744e-02    -1.573    -1.562     0.011
C(4)             1.637e+00
   CO2                    1.545e+00   1.586e+00     0.189     0.200     0.011
   HCO3-                  7.934e-02   6.199e-02    -1.101    -1.208    -0.107
   CaHCO3+                1.275e-02   9.959e-03    -1.895    -2.002    -0.107
   CaCO3                  5.422e-06   5.565e-06    -5.266    -5.255     0.011
   CO3-2                  7.059e-07   2.631e-07    -6.151    -6.580    -0.429
Ca               4.604e-02
   Ca+2                   3.329e-02   1.259e-02    -1.478    -1.900    -0.422
   CaHCO3+                1.275e-02   9.959e-03    -1.895    -2.002    -0.107
   CaCO3                  5.422e-06   5.565e-06    -5.266    -5.255     0.011
   CaOH+                  2.370e-10   1.836e-10    -9.625    -9.736    -0.111
H(0)             3.939e-10
   H2                     1.969e-10   2.021e-10    -9.706    -9.694     0.011
N(0)             1.061e-03
   N2                     5.303e-04   5.442e-04    -3.276    -3.264     0.011
N(3)             0.000e+00
   NO2-                   0.000e+00   0.000e+00   -61.726   -61.854    -0.128
N(5)             0.000e+00
   NO3-                   0.000e+00   0.000e+00   -83.764   -83.893    -0.128
O(0)             0.000e+00
   O2                     0.000e+00   0.000e+00   -73.028   -73.017     0.011

------------------------------Saturation indices-------------------------------

	Phase               SI   log IAP   log K(298 K,   1 atm)

	Aragonite        -0.14     -8.48   -8.34  CaCO3
	Calcite           0.00     -8.48   -8.48  CaCO3
	CH4(g)            1.28**   -1.56   -2.84  CH4	 Pressure  20.0 atm, phi 0.957.
	CO2(g)            1.66**    0.20   -1.46  CO2	 Pressure 100.0 atm, phi 0.464.
	H2(g)            -6.59     -9.69   -3.10  H2
	H2O(g)           -1.52     -0.01    1.51  H2O
	N2(g)            -0.09**   -3.26   -3.18  N2	 Pressure   0.8 atm, phi 1.000.
	O2(g)           -70.12    -73.02   -2.89  O2
	                      ** SI from Peng-Robinson fugacity - Delta(V) * (P - 1) / 2.3RT.

Reaction step 2.

Using solution 0.	
Using pure phase assemblage 1.	
Using temperature 1.	

-------------------------------Phase assemblage--------------------------------

                                                      Moles in assemblage
Phase               SI  log IAP  log K(T, P)   Initial       Final       Delta

Calcite          -0.00    -8.66     -8.66    1.000e+01   9.966e+00  -3.355e-02
CO2(g)            1.78**   0.10     -1.68    1.000e+01   8.742e+00  -1.258e+00
                       ** SI from Peng-Robinson fugacity - Delta(V) * (P - 1) / 2.3RT.

-----------------------------Solution composition------------------------------

	Elements           Molality       Moles

	C                 1.319e+00   1.318e+00
	Ca                3.357e-02   3.355e-02
	N                 1.060e-03   1.060e-03

----------------------------Description of solution----------------------------

                                       pH  =   4.862      Charge balance
                                       pe  =  -2.008      Adjusted to redox equilibrium
       Specific Conductance (uS/cm, 50 oC) = 3644
                          Density (g/cm3)  =   0.98806
                        Activity of water  =   0.977
                           Ionic strength  =   8.253e-02
                       Mass of water (kg)  =   9.994e-01
                 Total alkalinity (eq/kg)  =   6.713e-02
                       Total CO2 (mol/kg)  =   1.292e+00
                      Temperature (deg C)  =  50.00
                  Electrical balance (eq)  =   3.823e-10
 Percent error, 100*(Cat-|An|)/(Cat+|An|)  =   0.00
                               Iterations  =  21
                                  Total H  = 1.111193e+02
                                  Total O  = 5.812219e+01

----------------------------Distribution of species----------------------------

                                                   Log       Log         Log 
   Species                 Molality    Activity  Molality  Activity     Gamma

   H+                     1.661e-05   1.374e-05    -4.780    -4.862    -0.083
   OH-                    4.920e-09   3.775e-09    -8.308    -8.423    -0.115
   H2O                    5.551e+01   9.772e-01     1.744    -0.010     0.000
C(-4)            2.673e-02
   CH4                    2.673e-02   2.724e-02    -1.573    -1.565     0.008
C(4)             1.292e+00
   CO2                    1.225e+00   1.248e+00     0.088     0.096     0.008
   HCO3-                  5.805e-02   4.598e-02    -1.236    -1.337    -0.101
   CaHCO3+                9.082e-03   7.194e-03    -2.042    -2.143    -0.101
   CaCO3                  6.954e-06   7.087e-06    -5.158    -5.150     0.008
   CO3-2                  5.691e-07   2.240e-07    -6.245    -6.650    -0.405
Ca               3.357e-02
   Ca+2                   2.448e-02   9.704e-03    -1.611    -2.013    -0.402
   CaHCO3+                9.082e-03   7.194e-03    -2.042    -2.143    -0.101
   CaCO3                  6.954e-06   7.087e-06    -5.158    -5.150     0.008
   CaOH+                  1.462e-10   1.146e-10    -9.835    -9.941    -0.106
H(0)             2.578e-09
   H2                     1.289e-09   1.314e-09    -8.890    -8.882     0.008
N(0)             1.060e-03
   N2                     5.301e-04   5.403e-04    -3.276    -3.267     0.008
N(3)             0.000e+00
   NO2-                   0.000e+00   0.000e+00   -56.712   -56.832    -0.119
N(5)             0.000e+00
   NO3-                   0.000e+00   0.000e+00   -77.103   -77.223    -0.119
O(0)             0.000e+00
   O2                     0.000e+00   0.000e+00   -67.050   -67.041     0.008

------------------------------Saturation indices-------------------------------

	Phase               SI   log IAP   log K(323 K,   1 atm)

	Aragonite        -0.13     -8.66   -8.54  CaCO3
	Calcite          -0.00     -8.66   -8.66  CaCO3
	CH4(g)            1.42**   -1.56   -2.99  CH4	 Pressure  20.0 atm, phi 0.957.
	CO2(g)            1.78**    0.10   -1.68  CO2	 Pressure 100.0 atm, phi 0.614.
	H2(g)            -5.75     -8.88   -3.14  H2
	H2O(g)           -0.92     -0.01    0.91  H2O
	N2(g)             0.02**   -3.27   -3.29  N2	 Pressure   0.8 atm, phi 1.000.
	O2(g)           -64.01    -67.04   -3.03  O2
	                      ** SI from Peng-Robinson fugacity - Delta(V) * (P - 1) / 2.3RT.

Reaction step 3.

Using solution 0.	
Using pure phase assemblage 1.	
Using temperature 1.	

-------------------------------Phase assemblage--------------------------------

                                                      Moles in assemblage
Phase               SI  log IAP  log K(T, P)   Initial       Final       Delta

Calcite          -0.00    -8.48     -8.48    1.000e+01   9.954e+00  -4.600e-02
CO2(g)            1.66**   0.20     -1.46    1.000e+01   8.410e+00  -1.590e+00
                       ** SI from Peng-Robinson fugacity - Delta(V) * (P - 1) / 2.3RT.

-----------------------------Solution composition------------------------------

	Elements           Molality       Moles

	C                 1.664e+00   1.663e+00
	Ca                4.604e-02   4.600e-02
	N                 1.061e-03   1.060e-03

----------------------------Description of solution----------------------------

                                       pH  =   4.957      Charge balance
                                       pe  =  -1.684      Adjusted to redox equilibrium
       Specific Conductance (uS/cm, 25 oC) = 3032
                          Density (g/cm3)  =   0.99705
                        Activity of water  =   0.971
                           Ionic strength  =   1.126e-01
                       Mass of water (kg)  =   9.992e-01
                 Total alkalinity (eq/kg)  =   9.209e-02
                       Total CO2 (mol/kg)  =   1.637e+00
                      Temperature (deg C)  =  25.00
                  Electrical balance (eq)  =  -6.180e-11
 Percent error, 100*(Cat-|An|)/(Cat+|An|)  =  -0.00
                               Iterations  =  25
                                  Total H  = 1.111193e+02
                                  Total O  = 5.882443e+01

----------------------------Distribution of species----------------------------

                                                   Log       Log         Log 
   Species                 Molality    Activity  Molality  Activity     Gamma

   H+                     1.346e-05   1.105e-05    -4.871    -4.957    -0.086
   OH-                    1.169e-09   8.798e-10    -8.932    -9.056    -0.123
   H2O                    5.551e+01   9.711e-01     1.744    -0.013     0.000
C(-4)            2.673e-02
   CH4                    2.673e-02   2.744e-02    -1.573    -1.562     0.011
C(4)             1.637e+00
   CO2                    1.545e+00   1.586e+00     0.189     0.200     0.011
   HCO3-                  7.934e-02   6.199e-02    -1.101    -1.208    -0.107
   CaHCO3+                1.275e-02   9.959e-03    -1.895    -2.002    -0.107
   CaCO3                  5.422e-06   5.565e-06    -5.266    -5.255     0.011
   CO3-2                  7.059e-07   2.631e-07    -6.151    -6.580    -0.429
Ca               4.604e-02
   Ca+2                   3.329e-02   1.259e-02    -1.478    -1.900    -0.422
   CaHCO3+                1.275e-02   9.959e-03    -1.895    -2.002    -0.107
   CaCO3                  5.422e-06   5.565e-06    -5.266    -5.255     0.011
   CaOH+                  2.370e-10   1.836e-10    -9.625    -9.736    -0.111
H(0)             3.939e-10
   H2                     1.969e-10   2.021e-10    -9.706    -9.694     0.011
N(0)             1.061e-03
   N2                     5.303e-04   5.442e-04    -3.276    -3.264     0.011
N(3)             0.000e+00
   NO2-                   0.000e+00   0.000e+00   -61.726   -61.854    -0.128
N(5)             0.000e+00
   NO3-                   0.000e+00   0.000e+00   -83.764   -83.893    -0.128
O(0)             0.000e+00
   O2                     0.000e+00   0.000e+00   -73.028   -73.017     0.011

------------------------------Saturation indices-------------------------------

	Phase               SI   log IAP   log K(298 K,   1 atm)

	Aragonite        -0.14     -8.48   -8.34  CaCO3
	Calcite          -0.00     -8.48   -8.48  CaCO3
	CH4(g)            1.28**   -1.56   -2.84  CH4	 Pressure  20.0 atm, phi 0.957.
	CO2(g)            1.66**    0.20   -1.46  CO2	 Pressure 100.0 atm, phi 0.464.
	H2(g)            -6.59     -9.69   -3.10  H2
	H2O(g)           -1.52     -0.01    1.51  H2O
	N2(g)            -0.09**   -3.26   -3.18  N2	 Pressure   0.8 atm, phi 1.000.
	O2(g)           -70.12    -73.02   -2.89  O2
	                      ** SI from Peng-Robinson fugacity - Delta(V) * (P - 1) / 2.3RT.

------------------
End of simulation.
------------------

------------------------------------
Reading input data for simulation 2.
------------------------------------

-----------
End of run.
-----------

