   Input file: PR_equil2
  Output file: PR_equil2.out
Database file: ../database/vreeqc.dat

------------------
Reading data base.
------------------

	KNOBS
	SOLUTION_MASTER_SPECIES
	SOLUTION_SPECIES
	PHASES
	EXCHANGE_MASTER_SPECIES
	EXCHANGE_SPECIES
	SURFACE_MASTER_SPECIES
	SURFACE_SPECIES
	RATES
	END
------------------------------------
Reading input data for simulation 1.
------------------------------------

	DATABASE ../database/vreeqc.dat
	SOLUTION 1
	C(-4) 1 CH4(g) 2 # equilibrium with a pure gas
	 C(4) 1 CO2(g) 2
	N 1 N2(g) 2
	  pH 3 charge
	  pressure 300
	GAS_PHASE 1 Mixture: Note changing phi's...
	 fixed_pressure
	 pressure 300
	CH4(g) 100
	 CO2(g) 100
	N2(g) 100
	END
-------------------------------------------
Beginning of initial solution calculations.
-------------------------------------------

Initial solution 1.	

-----------------------------Solution composition------------------------------

	Elements           Molality       Moles

	C(-4)             7.823e-02   7.823e-02  Equilibrium with CH4(g)
	C(4)              1.132e+00   1.132e+00  Equilibrium with CO2(g)
	N                 8.990e-02   8.990e-02  Equilibrium with N2(g)

----------------------------Description of solution----------------------------

                                       pH  =   3.098      Charge balance
                                       pe  =   4.000    
       Specific Conductance (uS/cm, 25 oC) = 317
                          Density (g/cm3)  =   1.01084
                        Activity of water  =   0.979
                           Ionic strength  =   8.223e-04
                       Mass of water (kg)  =   1.000e+00
                 Total alkalinity (eq/kg)  =  -1.384e-13
                       Total CO2 (mol/kg)  =   1.132e+00
                      Temperature (deg C)  =  25.00
                           Pressure (atm)  = 300.00
                  Electrical balance (eq)  =   1.384e-13
 Percent error, 100*(Cat-|An|)/(Cat+|An|)  =   0.00
                               Iterations  =   7
                                  Total H  = 1.113270e+02
                                  Total O  = 5.777203e+01

---------------------------------Redox couples---------------------------------

	Redox couple             pe  Eh (volts)

	C(-4)/C(4)           0.1301      0.0077

----------------------------Distribution of species----------------------------

                                            Log       Log         Log     mole V
   Species          Molality    Activity  Molality  Activity     Gamma   cm3/mol

   H+              8.223e-04   7.972e-04    -3.085    -3.098    -0.013      0.00
   OH-             1.640e-11   1.588e-11   -10.785   -10.799    -0.014     -3.13
   H2O             5.551e+01   9.786e-01     1.744    -0.009     0.000     17.82
C(-4)         7.823e-02
   CH4             7.823e-02   7.824e-02    -1.107    -1.107     0.000     33.09
C(4)          1.132e+00
   CO2             1.132e+00   1.132e+00     0.054     0.054     0.000     27.25
   HCO3-           8.223e-04   7.964e-04    -3.085    -3.099    -0.014     24.32
   CO3-2           7.502e-11   6.601e-11   -10.125   -10.180    -0.056     -3.73
H(0)          7.046e-18
   H2              3.523e-18   3.524e-18   -17.453   -17.453     0.000     20.00
N(0)          8.990e-02
   N2              4.495e-02   4.496e-02    -1.347    -1.347     0.000     30.00
N(3)          0.000e+00
   NO2-            0.000e+00   0.000e+00   -51.045   -51.059    -0.014     (0)  
N(5)          0.000e+00
   NO3-            0.000e+00   0.000e+00   -65.427   -65.442    -0.014     29.01
O(0)          0.000e+00
   O2              0.000e+00   0.000e+00   -57.702   -57.702     0.000     35.00

------------------------------Saturation indices-------------------------------

	Phase               SI   log IAP   log K(298 K, 300 atm)

	CH4(g)            1.91     -1.11   -3.02  CH4	 Pressure 100.0 atm, phi 0.817.
	CO2(g)            1.41      0.05   -1.35  CO2	 Pressure 100.0 atm, phi 0.464.
	H2(g)           -14.35    -17.45   -3.10  H2
	H2O(g)           -1.42     -0.01    1.41  H2O
	N2(g)             1.57     -1.35   -2.92  N2	 Pressure 100.0 atm, phi 0.972.
	O2(g)           -54.62    -57.70   -3.08  O2


-----------------------------------------
Beginning of batch-reaction calculations.
-----------------------------------------

Reaction step 1.

Using solution 1.	
Using gas phase 1.	Mixture: Note changing phi's...

-----------------------------------Gas phase-----------------------------------

Total pressure: 300.00      atmospheres          (Peng-Robinson calculation)
    Gas volume:   1.01e+00 liters
  Molar volume:   6.74e-02 liters/mole
   P * Vm / RT:  0.82635  (Compressibility Factor Z) 

                                                        Moles in gas
                                            ----------------------------------
Component         log P           P    phi     Initial       Final       Delta

CH4(g)             1.99   9.795e+01  0.671   4.896e+00   4.911e+00   1.525e-02
CO2(g)             2.02   1.046e+02  0.307   4.896e+00   5.243e+00   3.474e-01
N2(g)              1.99   9.747e+01  1.193   4.896e+00   4.887e+00  -8.812e-03

-----------------------------Solution composition------------------------------

	Elements           Molality       Moles

	C                 8.480e-01   8.480e-01
	N                 1.075e-01   1.075e-01

----------------------------Description of solution----------------------------

                                       pH  =   3.177      Charge balance
                                       pe  =  -0.017      Adjusted to redox equilibrium
       Specific Conductance (uS/cm, 25 oC) = 265
                          Density (g/cm3)  =   1.01084
                        Activity of water  =   0.985
                           Ionic strength  =   6.849e-04
                       Mass of water (kg)  =   1.000e+00
                 Total alkalinity (eq/kg)  =  -1.384e-13
                       Total CO2 (mol/kg)  =   7.851e-01
                      Temperature (deg C)  =  25.00
                           Pressure (atm)  = 300.00
                  Electrical balance (eq)  =   1.384e-13
 Percent error, 100*(Cat-|An|)/(Cat+|An|)  =   0.00
                               Iterations  =  35
                                  Total H  = 1.112660e+02
                                  Total O  = 5.707716e+01

----------------------------Distribution of species----------------------------

                                            Log       Log         Log     mole V
   Species          Molality    Activity  Molality  Activity     Gamma   cm3/mol

   H+              6.849e-04   6.657e-04    -3.164    -3.177    -0.012      0.00
   OH-             1.971e-11   1.913e-11   -10.705   -10.718    -0.013     -3.13
   H2O             5.551e+01   9.847e-01     1.744    -0.007     0.000     17.82
C(-4)         6.298e-02
   CH4             6.298e-02   6.299e-02    -1.201    -1.201     0.000     33.09
C(4)          7.851e-01
   CO2             7.844e-01   7.845e-01    -0.105    -0.105     0.000     27.25
   HCO3-           6.849e-04   6.651e-04    -3.164    -3.177    -0.013     24.32
   CO3-2           7.424e-11   6.602e-11   -10.129   -10.180    -0.051     -3.73
H(0)          5.310e-10
   H2              2.655e-10   2.655e-10    -9.576    -9.576     0.000     20.00
N(0)          1.075e-01
   N2              5.376e-02   5.377e-02    -1.270    -1.269     0.000     30.00
N(3)          0.000e+00
   NO2-            0.000e+00   0.000e+00   -62.949   -62.962    -0.013     (0)  
N(5)          0.000e+00
   NO3-            0.000e+00   0.000e+00   -84.996   -85.009    -0.013     29.01
O(0)          0.000e+00
   O2              0.000e+00   0.000e+00   -73.451   -73.451     0.000     35.00

------------------------------Saturation indices-------------------------------

	Phase               SI   log IAP   log K(298 K, 300 atm)

	CH4(g)            1.34     -1.20   -2.54  CH4	 Pressure  98.0 atm, phi 0.671.
	CO2(g)            1.25     -0.11   -1.35  CO2	 Pressure 104.6 atm, phi 0.307.
	H2(g)            -6.47     -9.58   -3.10  H2
	H2O(g)           -1.41     -0.01    1.41  H2O
	N2(g)             2.07     -1.27   -3.33  N2	 Pressure  97.5 atm, phi 1.193.
	O2(g)           -70.37    -73.45   -3.08  O2


------------------
End of simulation.
------------------

------------------------------------
Reading input data for simulation 2.
------------------------------------

	SOLUTION 2
	 C(4) 1 CO2(g) 2
	  pH 3 charge
	  pressure 100
	GAS_PHASE 2 Pure: same phi...
	 fixed_pressure
	 pressure 100
	 CO2(g) 100
	END
-------------------------------------------
Beginning of initial solution calculations.
-------------------------------------------

Initial solution 2.	

-----------------------------Solution composition------------------------------

	Elements           Molality       Moles

	C(4)              1.425e+00   1.425e+00  Equilibrium with CO2(g)

----------------------------Description of solution----------------------------

                                       pH  =   3.087      Charge balance
                                       pe  =   4.000    
       Specific Conductance (uS/cm, 25 oC) = 326
                          Density (g/cm3)  =   1.00164
                        Activity of water  =   0.976
                           Ionic strength  =   8.438e-04
                       Mass of water (kg)  =   1.000e+00
                 Total alkalinity (eq/kg)  =   5.332e-21
                       Total CO2 (mol/kg)  =   1.425e+00
                      Temperature (deg C)  =  25.00
                           Pressure (atm)  = 100.00
                  Electrical balance (eq)  =  -5.332e-21
 Percent error, 100*(Cat-|An|)/(Cat+|An|)  =  -0.00
                               Iterations  =   7
                                  Total H  = 1.110141e+02
                                  Total O  = 5.835750e+01

----------------------------Distribution of species----------------------------

                                            Log       Log         Log     mole V
   Species          Molality    Activity  Molality  Activity     Gamma   cm3/mol

   H+              8.438e-04   8.177e-04    -3.074    -3.087    -0.014      0.00
   OH-             1.345e-11   1.301e-11   -10.871   -10.886    -0.014     -3.13
   H2O             5.551e+01   9.758e-01     1.744    -0.011     0.000     17.99
C(4)          1.425e+00
   CO2             1.424e+00   1.425e+00     0.154     0.154     0.000     25.45
   HCO3-           8.438e-04   8.169e-04    -3.074    -3.088    -0.014     24.32
   CO3-2           5.974e-11   5.248e-11   -10.224   -10.280    -0.056     -3.73
H(0)          8.730e-18
   H2              4.365e-18   4.366e-18   -17.360   -17.360     0.000     20.00
O(0)          0.000e+00
   O2              0.000e+00   0.000e+00   -57.750   -57.750     0.000     35.00

------------------------------Saturation indices-------------------------------

	Phase               SI   log IAP   log K(298 K, 100 atm)

	CO2(g)            1.58      0.15   -1.43  CO2	 Pressure 100.0 atm, phi 0.464.
	H2(g)           -14.26    -17.36   -3.10  H2
	H2O(g)           -1.48     -0.01    1.47  H2O
	O2(g)           -54.79    -57.75   -2.96  O2


-----------------------------------------
Beginning of batch-reaction calculations.
-----------------------------------------

Reaction step 1.

Using solution 2.	
Using gas phase 2.	Pure: same phi...

-----------------------------------Gas phase-----------------------------------

Total pressure: 100.00      atmospheres          (Peng-Robinson calculation)
    Gas volume:   1.00e+00 liters
  Molar volume:   5.62e-02 liters/mole
   P * Vm / RT:  0.22952  (Compressibility Factor Z) 

                                                        Moles in gas
                                            ----------------------------------
Component         log P           P    phi     Initial       Final       Delta

CO2(g)             2.00   1.000e+02  0.464   1.781e+01   1.781e+01   1.616e-09

-----------------------------Solution composition------------------------------

	Elements           Molality       Moles

	C                 1.425e+00   1.425e+00

----------------------------Description of solution----------------------------

                                       pH  =   3.087      Charge balance
                                       pe  =   4.300      Adjusted to redox equilibrium
       Specific Conductance (uS/cm, 25 oC) = 326
                          Density (g/cm3)  =   1.00164
                        Activity of water  =   0.976
                           Ionic strength  =   8.438e-04
                       Mass of water (kg)  =   1.000e+00
                 Total alkalinity (eq/kg)  =   5.744e-14
                       Total CO2 (mol/kg)  =   1.425e+00
                      Temperature (deg C)  =  25.00
                           Pressure (atm)  = 100.00
                  Electrical balance (eq)  =  -5.744e-14
 Percent error, 100*(Cat-|An|)/(Cat+|An|)  =  -0.00
                               Iterations  =   2
                                  Total H  = 1.110141e+02
                                  Total O  = 5.835750e+01

----------------------------Distribution of species----------------------------

                                            Log       Log         Log     mole V
   Species          Molality    Activity  Molality  Activity     Gamma   cm3/mol

   H+              8.438e-04   8.177e-04    -3.074    -3.087    -0.014      0.00
   OH-             1.345e-11   1.301e-11   -10.871   -10.886    -0.014     -3.13
   H2O             5.551e+01   9.758e-01     1.744    -0.011     0.000     17.99
C(-4)         2.452e-35
   CH4             2.452e-35   2.452e-35   -34.611   -34.610     0.000     33.09
C(4)          1.425e+00
   CO2             1.424e+00   1.425e+00     0.154     0.154     0.000     25.45
   HCO3-           8.438e-04   8.169e-04    -3.074    -3.088    -0.014     24.32
   CO3-2           5.974e-11   5.248e-11   -10.224   -10.280    -0.056     -3.73
H(0)          2.193e-18
   H2              1.096e-18   1.097e-18   -17.960   -17.960     0.000     20.00
O(0)          0.000e+00
   O2              0.000e+00   0.000e+00   -56.550   -56.550     0.000     35.00

------------------------------Saturation indices-------------------------------

	Phase               SI   log IAP   log K(298 K, 100 atm)

	CH4(g)          -31.87    -34.61   -2.74  CH4
	CO2(g)            1.58      0.15   -1.43  CO2	 Pressure 100.0 atm, phi 0.464.
	H2(g)           -14.86    -17.96   -3.10  H2
	H2O(g)           -1.48     -0.01    1.47  H2O
	O2(g)           -53.59    -56.55   -2.96  O2


------------------
End of simulation.
------------------

------------------------------------
Reading input data for simulation 3.
------------------------------------

-----------
End of run.
-----------

