WARNING: Database file from DATABASE keyword is used; command line argument ignored.
   Input file: pr_h2o
  Output file: pr_h2o.out
Database file: ../database/phreeqc.dat

------------------
Reading data base.
------------------

	SOLUTION_MASTER_SPECIES
	SOLUTION_SPECIES
	PHASES
	EXCHANGE_MASTER_SPECIES
	EXCHANGE_SPECIES
	SURFACE_MASTER_SPECIES
	SURFACE_SPECIES
	RATES
	END
------------------------------------
Reading input data for simulation 1.
------------------------------------

	DATABASE ../database/phreeqc.dat
	SELECTED_OUTPUT 101
	    file                 pr_h2o_101.sel
	USER_PUNCH 101
	    headings Mu SC
	    start
	10 PUNCH STR_F$(MU, 20, 12)
	20 PUNCH STR_F$(SC, 20, 10)
	    end
	KNOBS
	step_size 2
	pe_step_size 2
	iterations 1000
	PHASES
	H2O(g)
		H2O = H2O
		log_k  1.506
	 delta_h -44.03 kJ
		t_c  647.3
		p_c  217.60
		omega 0.344
		analytical_expression   -16.5066 -2.0013E-3  2710.7  3.7646  0 2.24E-6
	solution
	temp 30
	pH  7 charge
	Na 1.562e0
	Cl 1.562e0
	END
-------------------------------------------
Beginning of initial solution calculations.
-------------------------------------------

Initial solution 1.	

-----------------------------Solution composition------------------------------

	Elements           Molality       Moles

	Cl                1.562e-03   1.562e-03
	Na                1.562e-03   1.562e-03

----------------------------Description of solution----------------------------

                                       pH  =   6.916      Charge balance
                                       pe  =   4.000    
      Specific Conductance (µS/cm,  30°C)  = 211
                          Density (g/cm³)  =   0.99571
                               Volume (L)  =   1.00440
                        Activity of water  =   1.000
                 Ionic strength (mol/kgw)  =   1.562e-03
                       Mass of water (kg)  =   1.000e+00
                 Total alkalinity (eq/kg)  =   7.112e-20
                         Temperature (°C)  =  30.00
                  Electrical balance (eq)  =  -2.254e-16
 Percent error, 100*(Cat-|An|)/(Cat+|An|)  =  -0.00
                               Iterations  =   3
                                  Total H  = 1.110124e+02
                                  Total O  = 5.550622e+01

----------------------------Distribution of species----------------------------

                                               Log       Log       Log    mole V
   Species          Molality    Activity  Molality  Activity     Gamma   cm³/mol

   OH-             1.265e-07   1.210e-07    -6.898    -6.917    -0.019     -3.94
   H+              1.265e-07   1.213e-07    -6.898    -6.916    -0.018      0.00
   H2O             5.551e+01   9.999e-01     1.744    -0.000     0.000     18.09
Cl            1.562e-03
   Cl-             1.562e-03   1.494e-03    -2.806    -2.826    -0.019     18.20
H(0)          1.984e-25
   H2              9.921e-26   9.924e-26   -25.003   -25.003     0.000     28.60
Na            1.562e-03
   Na+             1.562e-03   1.495e-03    -2.806    -2.826    -0.019     -1.22
   NaOH            1.808e-20   1.808e-20   -19.743   -19.743     0.000     (0)  
O(0)          0.000e+00
   O2              0.000e+00   0.000e+00   -40.787   -40.786     0.000     30.77

------------------------------Saturation indices-------------------------------

  Phase               SI** log IAP   log K(303 K,   1 atm)

  H2(g)           -21.89    -25.00   -3.11  H2
  H2O(g)           -1.38     -0.00    1.38  H2O
  Halite           -7.23     -5.65    1.57  NaCl
  O2(g)           -37.86    -40.79   -2.93  O2

**For a gas, SI = log10(fugacity). Fugacity = pressure * phi / 1 atm.
  For ideal gases, phi = 1.

------------------
End of simulation.
------------------

------------------------------------
Reading input data for simulation 2.
------------------------------------

	GAS_PHASE
	fixed_pressure
	pressure 10
	H2O(g) 1e-20
	END
------------------
End of simulation.
------------------

------------------------------------
Reading input data for simulation 3.
------------------------------------

	REACTION_PRESSURE 1
	0.1 50 in 10
	REACTION_TEMPERATURE 
	50
	USE solution 1
	USE gas_phase 1
	USER_GRAPH 
	20 plot_xy pressure, PR_PHI("H2O(g)")
	30 plot_xy pressure, gas_p * GAS_VM / (0.08206 * tk), y_axis = 2 
	END
-----------------------------------------
Beginning of batch-reaction calculations.
-----------------------------------------

Reaction step 1.

Using solution 1.	
Using gas phase 1.	
Using temperature 1.	
Using pressure 1.	

-----------------------------------Gas phase-----------------------------------

Total pressure:  0.10      atmospheres          (Peng-Robinson calculation)
    Gas volume:   1.47e+04 liters
  Molar volume:   2.65e+02 liters/mole
   P * Vm / RT:  0.99874  (Compressibility Factor Z) 

                                                        Moles in gas
                                            ----------------------------------
Component         log P           P    phi     Initial       Final       Delta

H2O(g)            -1.00   1.000e-01  0.999   4.087e-12   5.549e+01   5.549e+01

-----------------------------Solution composition------------------------------

	Elements           Molality       Moles

	Cl                5.211e+00   1.562e-03
	Na                5.211e+00   1.562e-03

----------------------------Description of solution----------------------------

                                       pH  =   6.590      Charge balance
                                       pe  =  -0.606      Adjusted to redox equilibrium
      Specific Conductance (µS/cm,  50°C)  = 382763
                          Density (g/cm³)  =   1.15909
                               Volume (L)  =   0.00034
                        Activity of water  =   0.823
                 Ionic strength (mol/kgw)  =   5.211e+00
                       Mass of water (kg)  =   2.998e-04
                 Total alkalinity (eq/kg)  =   1.052e-08
                         Temperature (°C)  =  50.00
                           Pressure (atm)  =  0.10
                  Electrical balance (eq)  =  -3.165e-12
 Percent error, 100*(Cat-|An|)/(Cat+|An|)  =  -0.00
                               Iterations  = 147
                                  Total H  = 3.327830e-02
                                  Total O  = 1.663915e-02

----------------------------Distribution of species----------------------------

                                               Log       Log       Log    mole V
   Species          Molality    Activity  Molality  Activity     Gamma   cm³/mol

   OH-             3.781e-07   1.754e-07    -6.422    -6.756    -0.334      4.57
   H+              3.676e-07   2.568e-07    -6.435    -6.590    -0.156      0.00
   H2O             5.551e+01   8.228e-01     1.744    -0.085     0.000     18.23
Cl            5.211e+00
   Cl-             5.211e+00   3.024e+00     0.717     0.481    -0.236     20.30
H(0)          3.650e-16
   H2              1.825e-16   6.057e-16   -15.739   -15.218     0.521     28.59
Na            5.211e+00
   Na+             5.211e+00   7.021e+00     0.717     0.846     0.130      1.45
   NaOH            3.710e-17   1.231e-16   -16.431   -15.910     0.521     (0)  
O(0)          0.000e+00
   O2              0.000e+00   0.000e+00   -55.191   -54.670     0.521     31.93

------------------------------Saturation indices-------------------------------

  Phase               SI** log IAP   log K(323 K,   0 atm)

  H2(g)           -12.08    -15.22   -3.14  H2
  H2O(g)           -1.00     -0.08    0.92  H2O	 Pressure   0.1 atm, phi 0.999
  Halite           -0.26      1.33    1.59  NaCl
  O2(g)           -51.64    -54.67   -3.03  O2

**For a gas, SI = log10(fugacity). Fugacity = pressure * phi / 1 atm.
  For ideal gases, phi = 1.

Reaction step 2.

Using solution 1.	
Using gas phase 1.	
Using temperature 1.	
Using pressure 1.	

----------------Fixed-pressure gas phase 1 dissolved completely----------------

-----------------------------Solution composition------------------------------

	Elements           Molality       Moles

	Cl                1.562e-03   1.562e-03
	Na                1.562e-03   1.562e-03

----------------------------Description of solution----------------------------

                                       pH  =   6.629      Charge balance
                                       pe  =   1.452      Adjusted to redox equilibrium
      Specific Conductance (µS/cm,  50°C)  = 298
                          Density (g/cm³)  =   0.98829
                               Volume (L)  =   1.01194
                        Activity of water  =   1.000
                 Ionic strength (mol/kgw)  =   1.562e-03
                       Mass of water (kg)  =   1.000e+00
                 Total alkalinity (eq/kg)  =   1.746e-13
                         Temperature (°C)  =  50.00
                           Pressure (atm)  =  5.64
                  Electrical balance (eq)  =  -1.689e-13
 Percent error, 100*(Cat-|An|)/(Cat+|An|)  =  -0.00
                               Iterations  =  12
                                  Total H  = 1.110124e+02
                                  Total O  = 5.550622e+01

----------------------------Distribution of species----------------------------

                                               Log       Log       Log    mole V
   Species          Molality    Activity  Molality  Activity     Gamma   cm³/mol

   OH-             2.452e-07   2.341e-07    -6.610    -6.631    -0.020     -3.79
   H+              2.452e-07   2.348e-07    -6.610    -6.629    -0.019      0.00
   H2O             5.551e+01   9.999e-01     1.744    -0.000     0.000     18.23
Cl            1.562e-03
   Cl-             1.562e-03   1.491e-03    -2.806    -2.826    -0.020     18.24
H(0)          7.680e-20
   H2              3.840e-20   3.841e-20   -19.416   -19.416     0.000     28.58
Na            1.562e-03
   Na+             1.562e-03   1.492e-03    -2.806    -2.826    -0.020     -0.50
   NaOH            3.488e-20   3.489e-20   -19.457   -19.457     0.000     (0)  
O(0)          0.000e+00
   O2              0.000e+00   0.000e+00   -46.109   -46.109     0.000     31.91

------------------------------Saturation indices-------------------------------

  Phase               SI** log IAP   log K(323 K,   6 atm)

  H2(g)           -16.28    -19.42   -3.14  H2
  H2O(g)           -0.91     -0.00    0.91  H2O
  Halite           -7.24     -5.65    1.59  NaCl
  O2(g)           -43.08    -46.11   -3.03  O2

**For a gas, SI = log10(fugacity). Fugacity = pressure * phi / 1 atm.
  For ideal gases, phi = 1.

Reaction step 3.

Using solution 1.	
Using gas phase 1.	
Using temperature 1.	
Using pressure 1.	

----------------Fixed-pressure gas phase 1 dissolved completely----------------

-----------------------------Solution composition------------------------------

	Elements           Molality       Moles

	Cl                1.562e-03   1.562e-03
	Na                1.562e-03   1.562e-03

----------------------------Description of solution----------------------------

                                       pH  =   6.628      Charge balance
                                       pe  =   1.376      Adjusted to redox equilibrium
      Specific Conductance (µS/cm,  50°C)  = 298
                          Density (g/cm³)  =   0.98854
                               Volume (L)  =   1.01169
                        Activity of water  =   1.000
                 Ionic strength (mol/kgw)  =   1.562e-03
                       Mass of water (kg)  =   1.000e+00
                 Total alkalinity (eq/kg)  =  -1.364e-15
                         Temperature (°C)  =  50.00
                           Pressure (atm)  = 11.19
                  Electrical balance (eq)  =   1.407e-15
 Percent error, 100*(Cat-|An|)/(Cat+|An|)  =   0.00
                               Iterations  =  12
                                  Total H  = 1.110124e+02
                                  Total O  = 5.550622e+01

----------------------------Distribution of species----------------------------

                                               Log       Log       Log    mole V
   Species          Molality    Activity  Molality  Activity     Gamma   cm³/mol

   H+              2.458e-07   2.353e-07    -6.610    -6.628    -0.019      0.00
   OH-             2.458e-07   2.346e-07    -6.610    -6.630    -0.020     -3.80
   H2O             5.551e+01   9.999e-01     1.744    -0.000     0.000     18.23
Cl            1.562e-03
   Cl-             1.562e-03   1.491e-03    -2.806    -2.826    -0.020     18.25
H(0)          1.089e-19
   H2              5.445e-20   5.447e-20   -19.264   -19.264     0.000     28.58
Na            1.562e-03
   Na+             1.562e-03   1.492e-03    -2.806    -2.826    -0.020     -0.48
   NaOH            3.493e-20   3.494e-20   -19.457   -19.457     0.000     (0)  
O(0)          0.000e+00
   O2              0.000e+00   0.000e+00   -46.417   -46.417     0.000     31.90

------------------------------Saturation indices-------------------------------

  Phase               SI** log IAP   log K(323 K,  11 atm)

  H2(g)           -16.12    -19.26   -3.14  H2
  H2O(g)           -0.91     -0.00    0.91  H2O
  Halite           -7.24     -5.65    1.59  NaCl
  O2(g)           -43.38    -46.42   -3.04  O2

**For a gas, SI = log10(fugacity). Fugacity = pressure * phi / 1 atm.
  For ideal gases, phi = 1.

Reaction step 4.

Using solution 1.	
Using gas phase 1.	
Using temperature 1.	
Using pressure 1.	

----------------Fixed-pressure gas phase 1 dissolved completely----------------

-----------------------------Solution composition------------------------------

	Elements           Molality       Moles

	Cl                1.562e-03   1.562e-03
	Na                1.562e-03   1.562e-03

----------------------------Description of solution----------------------------

                                       pH  =   6.627      Charge balance
                                       pe  =   1.374      Adjusted to redox equilibrium
      Specific Conductance (µS/cm,  50°C)  = 298
                          Density (g/cm³)  =   0.98878
                               Volume (L)  =   1.01144
                        Activity of water  =   1.000
                 Ionic strength (mol/kgw)  =   1.562e-03
                       Mass of water (kg)  =   1.000e+00
                 Total alkalinity (eq/kg)  =  -3.433e-16
                         Temperature (°C)  =  50.00
                           Pressure (atm)  = 16.73
                  Electrical balance (eq)  =   1.181e-16
 Percent error, 100*(Cat-|An|)/(Cat+|An|)  =   0.00
                               Iterations  =  11
                                  Total H  = 1.110124e+02
                                  Total O  = 5.550622e+01

----------------------------Distribution of species----------------------------

                                               Log       Log       Log    mole V
   Species          Molality    Activity  Molality  Activity     Gamma   cm³/mol

   H+              2.463e-07   2.358e-07    -6.609    -6.627    -0.019      0.00
   OH-             2.463e-07   2.351e-07    -6.609    -6.629    -0.020     -3.81
   H2O             5.551e+01   9.999e-01     1.744    -0.000     0.000     18.22
Cl            1.562e-03
   Cl-             1.562e-03   1.491e-03    -2.806    -2.826    -0.020     18.25
H(0)          1.097e-19
   H2              5.486e-20   5.488e-20   -19.261   -19.261     0.000     28.58
Na            1.562e-03
   Na+             1.562e-03   1.492e-03    -2.806    -2.826    -0.020     -0.46
   NaOH            3.498e-20   3.499e-20   -19.456   -19.456     0.000     (0)  
O(0)          0.000e+00
   O2              0.000e+00   0.000e+00   -46.429   -46.428     0.000     31.89

------------------------------Saturation indices-------------------------------

  Phase               SI** log IAP   log K(323 K,  17 atm)

  H2(g)           -16.12    -19.26   -3.14  H2
  H2O(g)           -0.91     -0.00    0.91  H2O
  Halite           -7.24     -5.65    1.59  NaCl
  O2(g)           -43.39    -46.43   -3.04  O2

**For a gas, SI = log10(fugacity). Fugacity = pressure * phi / 1 atm.
  For ideal gases, phi = 1.

Reaction step 5.

Using solution 1.	
Using gas phase 1.	
Using temperature 1.	
Using pressure 1.	

-----------------------------------Gas phase-----------------------------------

Total pressure: 22.28      atmospheres          (Peng-Robinson calculation)
    Gas volume:   1.20e+00 liters
  Molar volume:   2.16e-02 liters/mole
   P * Vm / RT:  0.01816  (Compressibility Factor Z) 

                                                        Moles in gas
                                            ----------------------------------
Component         log P           P    phi     Initial       Final       Delta

H2O(g)             1.35   2.228e+01  0.005   4.087e-12   5.548e+01   5.548e+01

-----------------------------Solution composition------------------------------

	Elements           Molality       Moles

	Cl                3.203e+00   1.562e-03
	Na                3.203e+00   1.562e-03

----------------------------Description of solution----------------------------

                                       pH  =   6.575      Charge balance
                                       pe  =  -0.312      Adjusted to redox equilibrium
      Specific Conductance (µS/cm,  50°C)  = 293751
                          Density (g/cm³)  =   1.10056
                               Volume (L)  =   0.00053
                        Activity of water  =   0.891
                 Ionic strength (mol/kgw)  =   3.203e+00
                       Mass of water (kg)  =   4.876e-04
                 Total alkalinity (eq/kg)  =   2.479e-09
                         Temperature (°C)  =  50.00
                           Pressure (atm)  = 22.28
                  Electrical balance (eq)  =  -1.217e-12
 Percent error, 100*(Cat-|An|)/(Cat+|An|)  =  -0.00
                               Iterations  = 239
                                  Total H  = 5.413412e-02
                                  Total O  = 2.706706e-02

----------------------------Distribution of species----------------------------

                                               Log       Log       Log    mole V
   Species          Molality    Activity  Molality  Activity     Gamma   cm³/mol

   OH-             3.789e-07   1.856e-07    -6.422    -6.731    -0.310      1.75
   H+              3.764e-07   2.663e-07    -6.424    -6.575    -0.150      0.00
   H2O             5.551e+01   8.911e-01     1.744    -0.050     0.000     18.22
Cl            3.203e+00
   Cl-             3.203e+00   1.810e+00     0.506     0.258    -0.248     19.95
H(0)          1.570e-16
   H2              7.849e-17   1.641e-16   -16.105   -15.785     0.320     28.58
Na            3.203e+00
   Na+             3.203e+00   3.087e+00     0.506     0.490    -0.016      1.15
   NaOH            2.747e-17   5.743e-17   -16.561   -16.241     0.320     (0)  
O(0)          0.000e+00
   O2              0.000e+00   0.000e+00   -53.805   -53.485     0.320     31.88

------------------------------Saturation indices-------------------------------

  Phase               SI** log IAP   log K(323 K,  22 atm)

  H2(g)           -12.64    -15.78   -3.15  H2
  H2O(g)           -0.96     -0.05    0.91  H2O	 Pressure  22.3 atm, phi 0.005
  Halite           -0.84      0.75    1.59  NaCl
  O2(g)           -50.44    -53.48   -3.04  O2

**For a gas, SI = log10(fugacity). Fugacity = pressure * phi / 1 atm.
  For ideal gases, phi = 1.

Reaction step 6.

Using solution 1.	
Using gas phase 1.	
Using temperature 1.	
Using pressure 1.	

-----------------------------------Gas phase-----------------------------------

Total pressure: 27.82      atmospheres          (Peng-Robinson calculation)
    Gas volume:   1.20e+00 liters
  Molar volume:   2.16e-02 liters/mole
   P * Vm / RT:  0.02267  (Compressibility Factor Z) 

                                                        Moles in gas
                                            ----------------------------------
Component         log P           P    phi     Initial       Final       Delta

H2O(g)             1.44   2.782e+01  0.004   4.087e-12   5.548e+01   5.548e+01

-----------------------------Solution composition------------------------------

	Elements           Molality       Moles

	Cl                3.184e+00   1.562e-03
	Na                3.184e+00   1.562e-03

----------------------------Description of solution----------------------------

                                       pH  =   6.573      Charge balance
                                       pe  =  -0.382      Adjusted to redox equilibrium
      Specific Conductance (µS/cm,  50°C)  = 292706
                          Density (g/cm³)  =   1.10017
                               Volume (L)  =   0.00053
                        Activity of water  =   0.892
                 Ionic strength (mol/kgw)  =   3.184e+00
                       Mass of water (kg)  =   4.905e-04
                 Total alkalinity (eq/kg)  =   8.819e-10
                         Temperature (°C)  =  50.00
                           Pressure (atm)  = 27.82
                  Electrical balance (eq)  =  -4.328e-13
 Percent error, 100*(Cat-|An|)/(Cat+|An|)  =  -0.00
                               Iterations  = 134
                                  Total H  = 5.445248e-02
                                  Total O  = 2.722624e-02

----------------------------Distribution of species----------------------------

                                               Log       Log       Log    mole V
   Species          Molality    Activity  Molality  Activity     Gamma   cm³/mol

   OH-             3.786e-07   1.857e-07    -6.422    -6.731    -0.310      1.72
   H+              3.778e-07   2.673e-07    -6.423    -6.573    -0.150      0.00
   H2O             5.551e+01   8.917e-01     1.744    -0.050     0.000     18.21
Cl            3.184e+00
   Cl-             3.184e+00   1.800e+00     0.503     0.255    -0.248     19.94
H(0)          2.180e-16
   H2              1.090e-16   2.269e-16   -15.963   -15.644     0.318     28.57
Na            3.184e+00
   Na+             3.184e+00   3.060e+00     0.503     0.486    -0.017      1.16
   NaOH            2.737e-17   5.699e-17   -16.563   -16.244     0.318     (0)  
O(0)          0.000e+00
   O2              0.000e+00   0.000e+00   -54.089   -53.770     0.318     31.86

------------------------------Saturation indices-------------------------------

  Phase               SI** log IAP   log K(323 K,  28 atm)

  H2(g)           -12.50    -15.64   -3.15  H2
  H2O(g)           -0.96     -0.05    0.91  H2O	 Pressure  27.8 atm, phi 0.004
  Halite           -0.85      0.74    1.59  NaCl
  O2(g)           -50.73    -53.77   -3.04  O2

**For a gas, SI = log10(fugacity). Fugacity = pressure * phi / 1 atm.
  For ideal gases, phi = 1.

Reaction step 7.

Using solution 1.	
Using gas phase 1.	
Using temperature 1.	
Using pressure 1.	

-----------------------------------Gas phase-----------------------------------

Total pressure: 33.37      atmospheres          (Peng-Robinson calculation)
    Gas volume:   1.20e+00 liters
  Molar volume:   2.16e-02 liters/mole
   P * Vm / RT:  0.02719  (Compressibility Factor Z) 

                                                        Moles in gas
                                            ----------------------------------
Component         log P           P    phi     Initial       Final       Delta

H2O(g)             1.52   3.337e+01  0.003   4.087e-12   5.548e+01   5.548e+01

-----------------------------Solution composition------------------------------

	Elements           Molality       Moles

	Cl                3.166e+00   1.562e-03
	Na                3.166e+00   1.562e-03

----------------------------Description of solution----------------------------

                                       pH  =   6.572      Charge balance
                                       pe  =  -0.178      Adjusted to redox equilibrium
      Specific Conductance (µS/cm,  50°C)  = 291653
                          Density (g/cm³)  =   1.09979
                               Volume (L)  =   0.00053
                        Activity of water  =   0.892
                 Ionic strength (mol/kgw)  =   3.166e+00
                       Mass of water (kg)  =   4.934e-04
                 Total alkalinity (eq/kg)  =   3.852e-11
                         Temperature (°C)  =  50.00
                           Pressure (atm)  = 33.37
                  Electrical balance (eq)  =  -1.923e-14
 Percent error, 100*(Cat-|An|)/(Cat+|An|)  =  -0.00
                               Iterations  = 179
                                  Total H  = 5.477549e-02
                                  Total O  = 2.738774e-02

----------------------------Distribution of species----------------------------

                                               Log       Log       Log    mole V
   Species          Molality    Activity  Molality  Activity     Gamma   cm³/mol

   OH-             3.788e-07   1.859e-07    -6.422    -6.731    -0.309      1.68
   H+              3.788e-07   2.681e-07    -6.422    -6.572    -0.150      0.00
   H2O             5.551e+01   8.924e-01     1.744    -0.049     0.000     18.21
Cl            3.166e+00
   Cl-             3.166e+00   1.789e+00     0.500     0.253    -0.248     19.93
H(0)          8.559e-17
   H2              4.279e-17   8.870e-17   -16.369   -16.052     0.317     28.57
Na            3.166e+00
   Na+             3.166e+00   3.034e+00     0.500     0.482    -0.018      1.17
   NaOH            2.730e-17   5.660e-17   -16.564   -16.247     0.317     (0)  
O(0)          0.000e+00
   O2              0.000e+00   0.000e+00   -53.275   -52.959     0.317     31.85

------------------------------Saturation indices-------------------------------

  Phase               SI** log IAP   log K(323 K,  33 atm)

  H2(g)           -12.90    -16.05   -3.15  H2
  H2O(g)           -0.96     -0.05    0.91  H2O	 Pressure  33.4 atm, phi 0.003
  Halite           -0.86      0.73    1.59  NaCl
  O2(g)           -49.91    -52.96   -3.05  O2

**For a gas, SI = log10(fugacity). Fugacity = pressure * phi / 1 atm.
  For ideal gases, phi = 1.

Reaction step 8.

Using solution 1.	
Using gas phase 1.	
Using temperature 1.	
Using pressure 1.	

-----------------------------------Gas phase-----------------------------------

Total pressure: 38.91      atmospheres          (Peng-Robinson calculation)
    Gas volume:   1.20e+00 liters
  Molar volume:   2.16e-02 liters/mole
   P * Vm / RT:  0.03171  (Compressibility Factor Z) 

                                                        Moles in gas
                                            ----------------------------------
Component         log P           P    phi     Initial       Final       Delta

H2O(g)             1.59   3.891e+01  0.003   4.087e-12   5.548e+01   5.548e+01

-----------------------------Solution composition------------------------------

	Elements           Molality       Moles

	Cl                3.147e+00   1.562e-03
	Na                3.147e+00   1.562e-03

----------------------------Description of solution----------------------------

                                       pH  =   6.574      Charge balance
                                       pe  =  -0.494      Adjusted to redox equilibrium
      Specific Conductance (µS/cm,  50°C)  = 290591
                          Density (g/cm³)  =   1.09940
                               Volume (L)  =   0.00053
                        Activity of water  =   0.893
                 Ionic strength (mol/kgw)  =   3.147e+00
                       Mass of water (kg)  =   4.964e-04
                 Total alkalinity (eq/kg)  =   5.867e-09
                         Temperature (°C)  =  50.00
                           Pressure (atm)  = 38.91
                  Electrical balance (eq)  =  -2.927e-12
 Percent error, 100*(Cat-|An|)/(Cat+|An|)  =  -0.00
                               Iterations  = 259
                                  Total H  = 5.510326e-02
                                  Total O  = 2.755163e-02

----------------------------Distribution of species----------------------------

                                               Log       Log       Log    mole V
   Species          Molality    Activity  Molality  Activity     Gamma   cm³/mol

   OH-             3.823e-07   1.878e-07    -6.418    -6.726    -0.309      1.64
   H+              3.764e-07   2.665e-07    -6.424    -6.574    -0.150      0.00
   H2O             5.551e+01   8.930e-01     1.744    -0.049     0.000     18.20
Cl            3.147e+00
   Cl-             3.147e+00   1.779e+00     0.498     0.250    -0.248     19.93
H(0)          3.623e-16
   H2              1.811e-16   3.739e-16   -15.742   -15.427     0.315     28.57
Na            3.147e+00
   Na+             3.147e+00   3.007e+00     0.498     0.478    -0.020      1.18
   NaOH            2.747e-17   5.670e-17   -16.561   -16.246     0.315     (0)  
O(0)          0.000e+00
   O2              0.000e+00   0.000e+00   -54.527   -54.212     0.315     31.84

------------------------------Saturation indices-------------------------------

  Phase               SI** log IAP   log K(323 K,  39 atm)

  H2(g)           -12.27    -15.43   -3.15  H2
  H2O(g)           -0.95     -0.05    0.90  H2O	 Pressure  38.9 atm, phi 0.003
  Halite           -0.86      0.73    1.59  NaCl
  O2(g)           -51.16    -54.21   -3.05  O2

**For a gas, SI = log10(fugacity). Fugacity = pressure * phi / 1 atm.
  For ideal gases, phi = 1.

Reaction step 9.

Using solution 1.	
Using gas phase 1.	
Using temperature 1.	
Using pressure 1.	

-----------------------------------Gas phase-----------------------------------

Total pressure: 44.46      atmospheres          (Peng-Robinson calculation)
    Gas volume:   1.20e+00 liters
  Molar volume:   2.16e-02 liters/mole
   P * Vm / RT:  0.03622  (Compressibility Factor Z) 

                                                        Moles in gas
                                            ----------------------------------
Component         log P           P    phi     Initial       Final       Delta

H2O(g)             1.65   4.446e+01  0.003   4.087e-12   5.548e+01   5.548e+01

-----------------------------Solution composition------------------------------

	Elements           Molality       Moles

	Cl                3.128e+00   1.562e-03
	Na                3.128e+00   1.562e-03

----------------------------Description of solution----------------------------

                                       pH  =   6.576      Charge balance
                                       pe  =  -0.465      Adjusted to redox equilibrium
      Specific Conductance (µS/cm,  50°C)  = 289521
                          Density (g/cm³)  =   1.09901
                               Volume (L)  =   0.00054
                        Activity of water  =   0.894
                 Ionic strength (mol/kgw)  =   3.128e+00
                       Mass of water (kg)  =   4.994e-04
                 Total alkalinity (eq/kg)  =   1.038e-08
                         Temperature (°C)  =  50.00
                           Pressure (atm)  = 44.46
                  Electrical balance (eq)  =  -5.219e-12
 Percent error, 100*(Cat-|An|)/(Cat+|An|)  =  -0.00
                               Iterations  = 167
                                  Total H  = 5.543590e-02
                                  Total O  = 2.771795e-02

----------------------------Distribution of species----------------------------

                                               Log       Log       Log    mole V
   Species          Molality    Activity  Molality  Activity     Gamma   cm³/mol

   OH-             3.852e-07   1.894e-07    -6.414    -6.723    -0.308      1.61
   H+              3.748e-07   2.654e-07    -6.426    -6.576    -0.150      0.00
   H2O             5.551e+01   8.936e-01     1.744    -0.049     0.000     18.20
Cl            3.128e+00
   Cl-             3.128e+00   1.769e+00     0.495     0.248    -0.248     19.92
H(0)          3.127e-16
   H2              1.563e-16   3.213e-16   -15.806   -15.493     0.313     28.57
Na            3.128e+00
   Na+             3.128e+00   2.981e+00     0.495     0.474    -0.021      1.20
   NaOH            2.760e-17   5.671e-17   -16.559   -16.246     0.313     (0)  
O(0)          0.000e+00
   O2              0.000e+00   0.000e+00   -54.398   -54.085     0.313     31.83

------------------------------Saturation indices-------------------------------

  Phase               SI** log IAP   log K(323 K,  44 atm)

  H2(g)           -12.34    -15.49   -3.16  H2
  H2O(g)           -0.95     -0.05    0.90  H2O	 Pressure  44.5 atm, phi 0.003
  Halite           -0.87      0.72    1.59  NaCl
  O2(g)           -51.03    -54.08   -3.05  O2

**For a gas, SI = log10(fugacity). Fugacity = pressure * phi / 1 atm.
  For ideal gases, phi = 1.

Reaction step 10.

Using solution 1.	
Using gas phase 1.	
Using temperature 1.	
Using pressure 1.	

-----------------------------------Gas phase-----------------------------------

Total pressure: 50.00      atmospheres          (Peng-Robinson calculation)
    Gas volume:   1.20e+00 liters
  Molar volume:   2.16e-02 liters/mole
   P * Vm / RT:  0.04073  (Compressibility Factor Z) 

                                                        Moles in gas
                                            ----------------------------------
Component         log P           P    phi     Initial       Final       Delta

H2O(g)             1.70   5.000e+01  0.002   4.087e-12   5.548e+01   5.548e+01

-----------------------------Solution composition------------------------------

	Elements           Molality       Moles

	Cl                3.109e+00   1.562e-03
	Na                3.109e+00   1.562e-03

----------------------------Description of solution----------------------------

                                       pH  =   6.569      Charge balance
                                       pe  =  -0.453      Adjusted to redox equilibrium
      Specific Conductance (µS/cm,  50°C)  = 288442
                          Density (g/cm³)  =   1.09862
                               Volume (L)  =   0.00054
                        Activity of water  =   0.894
                 Ionic strength (mol/kgw)  =   3.109e+00
                       Mass of water (kg)  =   5.024e-04
                 Total alkalinity (eq/kg)  =   3.213e-11
                         Temperature (°C)  =  50.00
                           Pressure (atm)  = 50.00
                  Electrical balance (eq)  =  -1.637e-14
 Percent error, 100*(Cat-|An|)/(Cat+|An|)  =  -0.00
                               Iterations  = 278
                                  Total H  = 5.577350e-02
                                  Total O  = 2.788675e-02

----------------------------Distribution of species----------------------------

                                               Log       Log       Log    mole V
   Species          Molality    Activity  Molality  Activity     Gamma   cm³/mol

   OH-             3.805e-07   1.873e-07    -6.420    -6.728    -0.308      1.57
   H+              3.805e-07   2.695e-07    -6.420    -6.569    -0.150      0.00
   H2O             5.551e+01   8.943e-01     1.744    -0.049     0.000     18.20
Cl            3.109e+00
   Cl-             3.109e+00   1.758e+00     0.493     0.245    -0.248     19.92
H(0)          3.053e-16
   H2              1.527e-16   3.123e-16   -15.816   -15.505     0.311     28.56
Na            3.109e+00
   Na+             3.109e+00   2.955e+00     0.493     0.470    -0.022      1.21
   NaOH            2.718e-17   5.561e-17   -16.566   -16.255     0.311     (0)  
O(0)          0.000e+00
   O2              0.000e+00   0.000e+00   -54.375   -54.065     0.311     31.81

------------------------------Saturation indices-------------------------------

  Phase               SI** log IAP   log K(323 K,  50 atm)

  H2(g)           -12.35    -15.51   -3.16  H2
  H2O(g)           -0.95     -0.05    0.90  H2O	 Pressure  50.0 atm, phi 0.002
  Halite           -0.88      0.72    1.59  NaCl
  O2(g)           -51.01    -54.06   -3.06  O2

**For a gas, SI = log10(fugacity). Fugacity = pressure * phi / 1 atm.
  For ideal gases, phi = 1.

------------------
End of simulation.
------------------

------------------------------------
Reading input data for simulation 4.
------------------------------------

