   Input file: PR_initial_gas
  Output file: PR_initial_gas.out
Database file: ../database/phreeqc.dat

------------------
Reading data base.
------------------

	SOLUTION_MASTER_SPECIES
	SOLUTION_SPECIES
	PHASES
	EXCHANGE_MASTER_SPECIES
	EXCHANGE_SPECIES
	SURFACE_MASTER_SPECIES
	SURFACE_SPECIES
	RATES
	END
------------------------------------
Reading input data for simulation 1.
------------------------------------

	database ../database/phreeqc.dat
	PHASES
	    CO2(g)
	 CO2 = CO2
	    log_k -1.468
	    t_c 304.2       # critical T, K
	    p_c 72.80       # critical P, atm
	    omega 0.225     # acentric factor
	    delta_v 29      # cm3/mole (default units)
	CH4(g)
	 CH4 = CH4
	    log_k -2.8502
	    t_c  190.6    # critical T, K
	    p_c   45.40   # critical P, atm
	    omega 0.008   # acentric factor
	    delta_v 33
	N2(g)
	 N2 = N2
	     log_k -3.1864
	     T_c  126.2  # critical T, K
	    p_c   33.50 # critical P, atm
	    omega 0.039 # acentric factor
	    delta_v 30
	GAS_PHASE 1
	     fixed_volume          # or fixed_pressure, see the manual
		 pressure 100
	     volume 1              # 1 L by default
	     CO2(g) 0               # gas name from PHASES, initial partial pressure = 0
		 CH4(g) 100  # pressure becomes 23 atm in the previous tidy & prep
	SOLUTION 1
	END
-------------------------------------------
Beginning of initial solution calculations.
-------------------------------------------

Initial solution 1.	

-----------------------------Solution composition------------------------------

	Elements           Molality       Moles

	Pure water     

----------------------------Description of solution----------------------------

                                       pH  =   7.000    
                                       pe  =   4.000    
       Specific Conductance (uS/cm, 25 oC) = 0
                          Density (g/cm3)  =   0.99705
                        Activity of water  =   1.000
                           Ionic strength  =  1.001e-007
                       Mass of water (kg)  =  1.000e+000
                 Total alkalinity (eq/kg)  =  1.082e-010
                    Total carbon (mol/kg)  =  0.000e+000
                       Total CO2 (mol/kg)  =  0.000e+000
                      Temperature (deg C)  =  25.00
                  Electrical balance (eq)  = -1.082e-010
 Percent error, 100*(Cat-|An|)/(Cat+|An|)  =  -0.05
                               Iterations  =   0
                                  Total H  = 1.110124e+002
                                  Total O  = 5.550622e+001

----------------------------Distribution of species----------------------------

                                                   Log       Log         Log 
   Species                 Molality    Activity  Molality  Activity     Gamma

   OH-                   1.002e-007  1.001e-007    -6.999    -6.999    -0.000
   H+                    1.001e-007  1.000e-007    -7.000    -7.000    -0.000
   H2O                   5.551e+001  1.000e+000     1.744     0.000     0.000
H(0)            1.416e-025
   H2                    7.079e-026  7.079e-026   -25.150   -25.150     0.000
O(0)            0.000e+000
   O2                    0.000e+000  0.000e+000   -42.080   -42.080     0.000

------------------------------Saturation indices-------------------------------

	Phase               SI   log IAP   log K(298 K,   1 atm)

	H2(g)           -22.00    -25.15   -3.15  H2
	H2O(g)           -1.51      0.00    1.51  H2O
	O2(g)           -39.19    -42.08   -2.89  O2


-----------------------------------------
Beginning of batch-reaction calculations.
-----------------------------------------

Reaction step 1.

Using solution 1.	
Using gas phase 1.	

-----------------------------------Gas phase-----------------------------------

Total pressure: 98.20      atmospheres          (Peng-Robinson calculation)
    Gas volume:  1.00e+000 liters
  Molar volume:  2.07e-001 liters/mole
   P * Vm / RT:  0.82923  (Compressibility Factor Z) 

                                                        Moles in gas
                                            ----------------------------------
Component         log P           P    phi     Initial       Final       Delta

CH4(g)             1.99  9.820e+001  0.819  4.940e+000  4.840e+000 -9.962e-002
CO2(g)            -7.07  8.504e-008  0.614  0.000e+000  4.192e-009  4.192e-009

-----------------------------Solution composition------------------------------

	Elements           Molality       Moles

	C                9.962e-002  9.962e-002

----------------------------Description of solution----------------------------

                                       pH  =   6.986      Charge balance
                                       pe  =  -4.911      Adjusted to redox equilibrium
       Specific Conductance (uS/cm, 25 oC) = 0
                          Density (g/cm3)  =   0.99864
                        Activity of water  =   0.998
                           Ionic strength  =  1.035e-007
                       Mass of water (kg)  =  1.000e+000
                 Total alkalinity (eq/kg)  =  1.082e-010
                       Total CO2 (mol/kg)  =  8.389e-009
                      Temperature (deg C)  =  25.00
                           Pressure (atm)  = 98.20
                  Electrical balance (eq)  = -1.082e-010
 Percent error, 100*(Cat-|An|)/(Cat+|An|)  =  -0.05
                               Iterations  =  34
                                  Total H  = 1.114109e+002
                                  Total O  = 5.550622e+001

----------------------------Distribution of species----------------------------

                                                   Log       Log         Log 
   Species                 Molality    Activity  Molality  Activity     Gamma

   H+                    1.034e-007  1.034e-007    -6.985    -6.986    -0.000
   OH-                   9.671e-008  9.668e-008    -7.015    -7.015    -0.000
   H2O                   5.551e+001  9.983e-001     1.744    -0.001     0.000
C(-4)           9.962e-002
   CH4                   9.962e-002  9.962e-002    -1.002    -1.002     0.000
C(4)            8.389e-009
   HCO3-                 6.803e-009  6.800e-009    -8.167    -8.167    -0.000
   CO2                   1.583e-009  1.583e-009    -8.800    -8.800     0.000
   CO3-2                 3.090e-012  3.085e-012   -11.510   -11.511    -0.001
H(0)            1.006e-007
   H2                    5.032e-008  5.032e-008    -7.298    -7.298     0.000
O(0)            0.000e+000
   O2                    0.000e+000  0.000e+000   -77.785   -77.785     0.000

------------------------------Saturation indices-------------------------------

	Phase               SI   log IAP   log K(298 K,  98 atm)

	CH4(g)            1.91**   -1.00   -2.91  CH4	 Pressure  98.2 atm, phi 0.819.
	CO2(g)           -7.28**   -8.80   -1.52  CO2	 Pressure   0.0 atm, phi 0.614.
	H2(g)            -4.15     -7.30   -3.15  H2
	H2O(g)           -1.51     -0.00    1.51  H2O
	O2(g)           -74.89    -77.78   -2.89  O2
	                      ** SI from Peng-Robinson fugacity - Delta(V) * (P - 1) / 2.3RT.

------------------
End of simulation.
------------------

------------------------------------
Reading input data for simulation 2.
------------------------------------

-----------
End of run.
-----------

