   Input file: PR_initial_gas_noredox
  Output file: PR_initial_gas_noredox.out
Database file: ../database/pitzer.dat

------------------
Reading data base.
------------------

	SOLUTION_MASTER_SPECIES
	SOLUTION_SPECIES
	PHASES
	PITZER
	EXCHANGE_MASTER_SPECIES
	EXCHANGE_SPECIES
	SURFACE_MASTER_SPECIES
	SURFACE_SPECIES
	END
------------------------------------
Reading input data for simulation 1.
------------------------------------

	DATABASE ../database/pitzer.dat
	SOLUTION_MASTER_SPECIES
	Amm		AmmH+	0.0	AmmH	17.0 # NH3
	Mth		Mth	0.0	Mth	16 #CH4
	Sg		HSg-	1.0	Sg	32 # H2S
	Ng		Ng		0.0	Ng	28 # N2
	SOLUTION_SPECIES
	AmmH+ = AmmH+
		dw	 1.98e-9
		millero 17.47 -3.400e-3 7.600e-4 # From Millero, 1971, d, e and f not reported
	AmmH+ = Amm + H+
		log_k	-9.252
		delta_h 12.48	kcal
		analytical_expression    0.6322    -0.001225     -2835.76
		dw	 2.28e-9
	Mth = Mth
	HSg- = HSg-
		dw	 1.73e-9
	HSg- = Sg-2 + H+
		log_k	-12.918
		delta_h 12.1	kcal
		dw	 0.731e-9
	HSg- + H+ = H2Sg
		log_k	6.994
		delta_h -5.30	kcal
		analytical_expression  -11.17   0.02386  3279.0
		dw	 2.1e-9
	Ng = Ng
	H2O = OH- + H+
		log_k	   -13.998
		delta_h 13.345  kcal
		dw	 5.27e-9
		delta_v -22
	CO3-2 + H+ = HCO3-
		log_k	10.329
		delta_h -3.561	kcal
		analytical_expression	107.8871	0.03252849	-5151.79	-38.92561	563713.9
		dw	 1.18e-9
		millero 21.07 0.185 -0.002248 2.29 -0.006644 -3.667E-06
		delta_v 28
	CO3-2 + 2 H+ = CO2 + H2O
		log_k	16.681
		delta_h -5.738	kcal
		analytical_expression	464.1965	0.09344813	-26986.16	-165.75951	2248628.9
		dw	 1.92e-9
		delta_v 27
	PHASES
	Amm(g)
		Amm = Amm
		log_k	   1.7966
		analytical_expression -1.8758e+001 3.3670e-004 2.5113e+003 4.8619e+000 3.9192e+001
		t_c  405.6 # critical T, K
		p_c   111.3 # critical P, atm
		omega 0.25 #  acentric factor
		delta_v 30 # (estimated, not checked)
	Mth(g)
		Mth = Mth
		log_k	   -2.8502
		analytical_expression -2.4027e+001 4.7146e-003 3.7227e+002 6.4264e+000 2.3362e+005
		T_c  190.6 # critical T, K
		p_c   45.40 # critical P, atm
		omega 0.008 #  acentric factor
		delta_v 33
	CO2(g)
		CO2 = CO2
		log_k	-1.468
		delta_h  -4.776 kcal
		analytical_expression	108.3865	0.01985076	-6919.53	-40.45154	669365.0
		t_c  304.2 # critical T, K
		p_c   72.80 # critical P, atm
		omega 0.225 #  acentric factor
		delta_v   28 # 0   0  0   0 -6.7E-08   1.56E-05
	H2O(g)
		H2O = H2O
		log_k  1.506
	 delta_h -44.03 kJ
		T_c  647.3 # critical T, K
		p_c  217.60 # critical P, atm
		omega 0.344 #  acentric factor
		delta_v 0# + temperature and pressure terms
	H2Sg(g)
		H2Sg  =  H+ + HSg-
		log_k	   -7.9759
		analytical_expression -9.7354e+001 -3.1576e-002 1.8285e+003 3.7440e+001 2.8560e+001
		T_c  373.2 # critical T, K
		p_c  88.20 # critical P, atm
		omega 0.1 #  acentric factor
		delta_v 30
	Ng(g)
		Ng = Ng
		log_k		 -3.1864
		analytical_expression -58.453 1.81800E-03  3199  17.909 -27460
		T_c  126.2 # critical T, K
		p_c   33.50 # critical P, atm
		omega 0.039 #  acentric factor
		delta_v 30
	SOLUTION_SPECIES
	H2O = OH- + H+
		log_k	-14.0
		delta_h 13.362	kcal
		analytical_expression	-283.971	-0.05069842	13323.0	102.24447	-1119669.0
		gamma	3.5	0.0
		dw	 5.27e-9
		delta_v -22
	CO3-2 + H+ = HCO3-
		log_k	10.329
		delta_h -3.561	kcal
		analytical_expression	107.8871	0.03252849	-5151.79	-38.92561	563713.9
		gamma	5.4	0.0
		dw	 1.18e-9
		millero 21.07 0.185 -0.002248 2.29 -0.006644 -3.667E-06
		delta_v 28
	CO3-2 + 2 H+ = CO2 + H2O
		log_k	16.681
		delta_h -5.738	kcal
		analytical_expression	464.1965	0.09344813	-26986.16	-165.75951	2248628.9
		dw	 1.92e-9
		delta_v 27
	PHASES
	Calcite
		CaCO3 = CO3-2 + Ca+2
		log_k	-8.48
		delta_h -2.297 kcal
		analytical_expression	-171.9065	-0.077993	2839.319	71.595
		delta_v -50 cm3/mol
	Strontianite
		SrCO3 = Sr+2 + CO3-2
		log_k	-9.271
		delta_h -0.400 kcal
		analytical_expression	155.0305	0.0	-7239.594	-56.58638
	SOLUTION 1 Khuff reservoir: Franco et al., 2009, SAJT.
	units ppm
	pH 7
	temp 132
	pressure 400  # 13000 feet
	Na 54936
	Ca 14259
	Mg 1524
	S(6) 100
	Cl 114055
	Alkalinity 434 as HCO3
	Ba 22
	K 5887
	Sr 1047
	END
-------------------------------------------
Beginning of initial solution calculations.
-------------------------------------------

Initial solution 1.	Khuff reservoir: Franco et al., 2009, SAJT.

-----------------------------Solution composition------------------------------

	Elements           Molality       Moles

	Alkalinity        8.806e-03   8.806e-03
	Ba                1.983e-04   1.983e-04
	Ca                4.404e-01   4.404e-01
	Cl                3.983e+00   3.983e+00
	K                 1.864e-01   1.864e-01
	Mg                7.763e-02   7.763e-02
	Na                2.958e+00   2.958e+00
	S(6)              1.289e-03   1.289e-03
	Sr                1.479e-02   1.479e-02

----------------------------Description of solution----------------------------

                                       pH  =   7.000    
                                       pe  =   4.000    
       Specific Conductance (uS/cm, 132 oC) = 882276
                          Density (g/cm3)  =   1.07290
                        Activity of water  =   0.859
                           Ionic strength  =   4.630e+00
                       Mass of water (kg)  =   1.000e+00
                    Total carbon (mol/kg)  =   7.071e-03
                       Total CO2 (mol/kg)  =   7.071e-03
                      Temperature (deg C)  = 132.00
                           Pressure (atm)  = 400.00
                  Electrical balance (eq)  =   2.167e-01
 Percent error, 100*(Cat-|An|)/(Cat+|An|)  =   2.64
                               Iterations  =  22
                         Gamma iterations  =   6
                      Osmotic coefficient  =   1.09731
                         Density of water  =   0.93318
                                  Total H  = 1.110167e+02
                                  Total O  = 5.553205e+01

----------------------------Distribution of species----------------------------

                                                           MacInnes   MacInnes
	                               MacInnes    Log       Log         Log 
   Species                 Molality    Activity  Molality  Activity     Gamma

   OH-                    5.244e-05   1.259e-05    -4.280    -4.900    -0.620
   H+                     7.680e-08   1.000e-07    -7.115    -7.000     0.115
   H2O                    5.551e+01   8.594e-01     1.744    -0.066     0.000
Ba               1.983e-04
   Ba+2                   1.983e-04   1.374e-05    -3.703    -4.862    -1.159
C(4)             7.071e-03
   HCO3-                  3.939e-03   3.716e-03    -2.405    -2.430    -0.025
   CaCO3                  1.972e-03   1.972e-03    -2.705    -2.705     0.000
   CO2                    8.618e-04   1.842e-03    -3.065    -2.735     0.330
   CO3-2                  2.260e-04   2.159e-06    -3.646    -5.666    -2.020
   MgCO3                  7.238e-05   7.238e-05    -4.140    -4.140     0.000
Ca               4.404e-01
   Ca+2                   4.385e-01   5.661e-02    -0.358    -1.247    -0.889
   CaCO3                  1.972e-03   1.972e-03    -2.705    -2.705     0.000
Cl               3.983e+00
   Cl-                    3.983e+00   2.728e+00     0.600     0.436    -0.164
K                1.864e-01
   K+                     1.864e-01   1.067e-01    -0.730    -0.972    -0.242
Mg               7.763e-02
   Mg+2                   7.728e-02   1.080e-02    -1.112    -1.967    -0.855
   MgOH+                  2.742e-04   1.064e-04    -3.562    -3.973    -0.411
   MgCO3                  7.238e-05   7.238e-05    -4.140    -4.140     0.000
Na               2.958e+00
   Na+                    2.958e+00   1.967e+00     0.471     0.294    -0.177
S(6)             1.289e-03
   SO4-2                  1.289e-03   4.891e-05    -2.890    -4.311    -1.421
   HSO4-                  3.420e-08   1.533e-08    -7.466    -7.814    -0.348
Sr               1.479e-02
   Sr+2                   1.479e-02   2.870e-03    -1.830    -2.542    -0.712

------------------------------Saturation indices-------------------------------

	Phase               SI   log IAP   log K(405 K, 400 atm)

	Anhydrite         2.10*    -5.56   -7.65  CaSO4	 Delta_V -10.43 cm3/mol
	Aragonite         2.54*    -6.91   -9.45  CaCO3	 Delta_V -28.43 cm3/mol
	Arcanite         -5.57*    -6.25   -0.69  K2SO4	 Delta_V  23.78 cm3/mol
	Bischofite       -5.64*    -1.49    4.15  MgCl2:6H2O	 Delta_V  10.42 cm3/mol
	Bloedite         -7.97*   -10.26   -2.29  Na2Mg(SO4)2:4H2O	 Delta_V -10.72 cm3/mol
	Brucite          -1.94*   -11.77   -9.82  Mg(OH)2	 Delta_V -22.32 cm3/mol
	Burkeite        -11.81*   -12.52   -0.71  Na6CO3(SO4)2	 Delta_V -10.98 cm3/mol
	Calcite           3.00*    -6.91   -9.92  CaCO3	 Delta_V  21.57 cm3/mol
	Carnallite       -6.18*    -2.03    4.15  KMgCl3:6H2O	 Delta_V  34.05 cm3/mol
	Celestite         0.54*    -6.85   -7.40  SrSO4	 Delta_V  -9.18 cm3/mol
	CO2(g)           -0.87*    -2.73   -1.86  CO2	 Delta_V -36.74 cm3/mol
	Dolomite          4.05*   -14.55  -18.60  CaMg(CO3)2	 Delta_V -59.49 cm3/mol
	Epsomite         -5.88*    -6.74   -0.86  MgSO4:7H2O	 Delta_V -13.06 cm3/mol
	Gaylussite       -3.13*   -12.32   -9.19  CaNa2(CO3)2:5H2O	 Delta_V -44.09 cm3/mol
	Glaserite        -7.25*   -11.24   -4.00  NaK3(SO4)2	 Delta_V  36.84 cm3/mol
	Glauberite       -4.08*    -9.28   -5.20  Na2Ca(SO4)2	 Delta_V  -8.09 cm3/mol
	Gypsum           -0.55*    -5.69   -5.14  CaSO4:2H2O	 Delta_V -10.43 cm3/mol
	H2O(g)            0.47     -0.07   -0.53  H2O
	Halite           -0.70*     0.73    1.43  NaCl	 Delta_V  12.91 cm3/mol
	Hexahydrite      -6.44*    -6.67   -0.23  MgSO4:6H2O	 Delta_V -13.06 cm3/mol
	Kainite          -6.76*    -7.01   -0.25  KMgClSO4:3H2O	 Delta_V  10.57 cm3/mol
	Kalicinite       -3.59*   -13.64  -10.05  KHCO3	 Delta_V  -1.48 cm3/mol
	Kieserite        -6.29*    -6.34   -0.05  MgSO4:H2O	 Delta_V -13.06 cm3/mol
	Labile_S         -7.49*   -13.14   -5.64  Na4Ca(SO4)3:2H2O	 Delta_V  -5.75 cm3/mol
	Leonhardite      -5.72*    -6.54   -0.82  MgSO4:4H2O	 Delta_V -13.06 cm3/mol
	Leonite          -8.76*   -12.79   -4.03  K2Mg(SO4)2:4H2O	 Delta_V  10.72 cm3/mol
	Magnesite         0.32*    -7.63   -7.96  MgCO3	 Delta_V -31.06 cm3/mol
	Mirabilite       -2.03*    -4.38   -2.36  Na2SO4:10H2O	 Delta_V   2.34 cm3/mol
	Misenite        -68.50*   -79.95  -11.45  K8H6(SO4)7	 Delta_V 122.90 cm3/mol
	Nahcolite        -1.69*   -12.37  -10.68  NaHCO3	 Delta_V -12.20 cm3/mol
	Natron           -4.99*    -5.74   -0.74  Na2CO3:10H2O	 Delta_V -15.66 cm3/mol
	Nesquehonite     -2.82*    -7.83   -5.01  MgCO3:3H2O	 Delta_V -31.06 cm3/mol
	Pentahydrite     -5.39*    -6.61   -1.22  MgSO4:5H2O	 Delta_V -13.06 cm3/mol
	Pirssonite       -3.12*   -12.12   -9.00  Na2Ca(CO3)2:2H2O	 Delta_V -44.09 cm3/mol
	Polyhalite      -10.09*   -23.78  -13.69  K2MgCa2(SO4)4:2H2O	 Delta_V -10.14 cm3/mol
	Portlandite      -5.96*   -11.05   -5.09  Ca(OH)2	 Delta_V -19.69 cm3/mol
	Schoenite        -8.54*   -12.93   -4.38  K2Mg(SO4)2:6H2O	 Delta_V  10.72 cm3/mol
	Strontianite      2.04*    -8.21  -10.25  SrCO3	 Delta_V -27.18 cm3/mol
	Sylvite          -2.13*    -0.54    1.59  KCl	 Delta_V  23.63 cm3/mol
	Syngenite        -4.36*   -11.88   -7.52  K2Ca(SO4)2:H2O	 Delta_V  13.35 cm3/mol
	Trona            -6.34*   -17.58  -11.24  Na3H(CO3)2:2H2O	 Delta_V -27.86 cm3/mol
	                      *  with Delta_V * (P - 1) / 2.3RT.

------------------
End of simulation.
------------------

------------------------------------
Reading input data for simulation 2.
------------------------------------

	USE solution 1
	GAS_PHASE 1
	 fixed_volume
	 volume 1
	 temperature 132
	 CO2(g) 12 # 3%
	 Ng(g) 40
	 H2Sg(g) 0.2 # 500 ppm_v
	 Mth(g) 334
	 H2O(g) 11.7
	SAVE solution 1
	SAVE gas_phase 1
	END
-----------------------------------------
Beginning of batch-reaction calculations.
-----------------------------------------

Reaction step 1.

Using solution 1.	Khuff reservoir: Franco et al., 2009, SAJT.
Using gas phase 1.	

-----------------------------------Gas phase-----------------------------------

Total pressure: 376.03      atmospheres          (Peng-Robinson calculation)
    Gas volume:   1.00e+00 liters
  Molar volume:   9.12e-02 liters/mole
   P * Vm / RT:  1.03167  (Compressibility Factor Z) 

                                                        Moles in gas
                                            ----------------------------------
Component         log P           P    phi     Initial       Final       Delta

CO2(g)             1.02   1.050e+01  0.658   3.456e-01   3.062e-01  -3.940e-02
H2O(g)             1.04   1.093e+01  0.265   3.370e-01   3.186e-01  -1.840e-02
H2Sg(g)           -1.10   7.985e-02  0.504   5.761e-03   2.328e-03  -3.433e-03
Mth(g)             2.50   3.162e+02  0.912   9.620e+00   9.218e+00  -4.022e-01
Ng(g)              1.58   3.835e+01  1.222   1.152e+00   1.118e+00  -3.388e-02

-----------------------------Solution composition------------------------------

	Elements           Molality       Moles

	Ba                1.983e-04   1.983e-04
	C                 4.646e-02   4.647e-02
	Ca                4.403e-01   4.404e-01
	Cl                3.982e+00   3.983e+00
	K                 1.863e-01   1.864e-01
	Mg                7.760e-02   7.763e-02
	Mth               4.021e-01   4.022e-01
	Na                2.957e+00   2.958e+00
	Ng                3.387e-02   3.388e-02
	S                 1.288e-03   1.289e-03
	Sg                3.431e-03   3.433e-03
	Sr                1.479e-02   1.479e-02

----------------------------Description of solution----------------------------

                                       pH  =   5.610      Charge balance
                                       pe  =   4.000      Adjusted to redox equilibrium
       Specific Conductance (uS/cm, 132 oC) = 887522
                          Density (g/cm3)  =   1.07947
                        Activity of water  =   0.852
                           Ionic strength  =   4.635e+00
                       Mass of water (kg)  =   1.000e+00
                 Total alkalinity (eq/kg)  =   8.803e-03
                       Total CO2 (mol/kg)  =   4.646e-02
                      Temperature (deg C)  = 132.00
                           Pressure (atm)  = 376.03
                  Electrical balance (eq)  =   2.167e-01
 Percent error, 100*(Cat-|An|)/(Cat+|An|)  =   2.64
                               Iterations  =  45
                         Gamma iterations  =   6
                      Osmotic coefficient  =   1.09551
                         Density of water  =   0.93318
                                  Total H  = 1.110604e+02
                                  Total O  = 5.562925e+01

----------------------------Distribution of species----------------------------

                                                           MacInnes   MacInnes
	                               MacInnes    Log       Log         Log 
   Species                 Molality    Activity  Molality  Activity     Gamma

   OH-                    2.119e-06   5.076e-07    -5.674    -6.294    -0.621
   H+                     1.888e-06   2.457e-06    -5.724    -5.610     0.114
   H2O                    5.551e+01   8.515e-01     1.744    -0.070     0.000
Ba               1.983e-04
   Ba+2                   1.983e-04   1.370e-05    -3.703    -4.863    -1.161
C(4)             4.646e-02
   CO2                    3.909e-02   8.362e-02    -1.408    -1.078     0.330
   HCO3-                  7.200e-03   6.800e-03    -2.143    -2.167    -0.025
   CaCO3                  1.389e-04   1.389e-04    -3.857    -3.857     0.000
   CO3-2                  2.388e-05   2.272e-07    -4.622    -6.644    -2.022
   MgCO3                  4.626e-06   4.626e-06    -5.335    -5.335     0.000
Ca               4.403e-01
   Ca+2                   4.402e-01   5.773e-02    -0.356    -1.239    -0.882
   CaCO3                  1.389e-04   1.389e-04    -3.857    -3.857     0.000
Cl               3.982e+00
   Cl-                    3.982e+00   2.728e+00     0.600     0.436    -0.164
K                1.863e-01
   K+                     1.863e-01   1.071e-01    -0.730    -0.970    -0.241
Mg               7.760e-02
   Mg+2                   7.759e-02   1.097e-02    -1.110    -1.960    -0.850
   MgOH+                  9.503e-06   3.682e-06    -5.022    -5.434    -0.412
   MgCO3                  4.626e-06   4.626e-06    -5.335    -5.335     0.000
Mth              4.021e-01
   Mth                    4.021e-01   4.021e-01    -0.396    -0.396     0.000
Na               2.957e+00
   Na+                    2.957e+00   1.981e+00     0.471     0.297    -0.174
Ng               3.387e-02
   Ng                     3.387e-02   3.387e-02    -1.470    -1.470     0.000
S(6)             1.288e-03
   SO4-2                  1.288e-03   4.925e-05    -2.890    -4.308    -1.417
   HSO4-                  6.065e-07   2.720e-07    -6.217    -6.565    -0.348
Sg               3.431e-03
   H2Sg                   2.175e-03   2.175e-03    -2.662    -2.662     0.000
   HSg-                   1.253e-03   2.275e-04    -2.902    -3.643    -0.741
   Sg-2                   3.124e-06   2.459e-09    -5.505    -8.609    -3.104
Sr               1.479e-02
   Sr+2                   1.479e-02   2.863e-03    -1.830    -2.543    -0.713

------------------------------Saturation indices-------------------------------

	Phase               SI   log IAP   log K(405 K, 376 atm)

	Anhydrite         1.93*    -5.55   -7.48  CaSO4	 Delta_V -47.21 cm3/mol
	Aragonite         1.39*    -7.88   -9.27  CaCO3	 Delta_V -67.56 cm3/mol
	Arcanite         -5.72*    -6.25   -0.53  K2SO4	 Delta_V  -7.18 cm3/mol
	Bischofite       -5.85*    -1.51    4.34  MgCl2:6H2O	 Delta_V -26.39 cm3/mol
	Bloedite         -8.32*   -10.26   -1.94  Na2Mg(SO4)2:4H2O	 Delta_V -82.80 cm3/mol
	Brucite          -4.80*   -14.55   -9.75  Mg(OH)2	 Delta_V -38.74 cm3/mol
	Burkeite        -13.16*   -13.48   -0.31  Na6CO3(SO4)2	 Delta_V -93.72 cm3/mol
	Calcite           1.84*    -7.88   -9.72  CaCO3	 Delta_V -17.56 cm3/mol
	Carnallite       -6.44*    -2.04    4.40  KMgCl3:6H2O	 Delta_V -14.01 cm3/mol
	Celestite         0.36*    -6.85   -7.21  SrSO4	 Delta_V -47.41 cm3/mol
	CO2(g)            0.64**   -1.08   -1.72  CO2	 Delta_V -67.95 cm3/mol	 Pressure  10.5 atm, phi 0.658.
	Dolomite          1.71*   -16.49  -18.19  CaMg(CO3)2	 Delta_V -146.25 cm3/mol
	Epsomite         -6.11*    -6.76   -0.64  MgSO4:7H2O	 Delta_V -58.34 cm3/mol
	Gaylussite       -5.41*   -14.28   -8.87  CaNa2(CO3)2:5H2O	 Delta_V -112.37 cm3/mol
	Glaserite        -7.54*   -11.23   -3.69  NaK3(SO4)2	 Delta_V -23.00 cm3/mol
	Glauberite       -4.37*    -9.26   -4.89  Na2Ca(SO4)2	 Delta_V -71.67 cm3/mol
	Gypsum           -0.72*    -5.69   -4.96  CaSO4:2H2O	 Delta_V -47.21 cm3/mol
	H2O(g)            0.46**   -0.07   -0.53  H2O	 Pressure  10.9 atm, phi 0.265.
	H2Sg(g)          -1.40**   -9.25   -7.86  H2Sg	 Delta_V -30.00 cm3/mol	 Pressure   0.1 atm, phi 0.504.
	Halite           -0.74*     0.73    1.48  NaCl	 Delta_V   3.75 cm3/mol
	Hexahydrite      -6.67*    -6.69   -0.01  MgSO4:6H2O	 Delta_V -58.34 cm3/mol
	Kainite          -7.04*    -7.01    0.03  KMgClSO4:3H2O	 Delta_V -45.96 cm3/mol
	Kalicinite       -3.33*   -13.22   -9.89  KHCO3	 Delta_V -33.74 cm3/mol
	Kieserite        -6.50*    -6.34    0.16  MgSO4:H2O	 Delta_V -58.34 cm3/mol
	Labile_S         -7.91*   -13.11   -5.20  Na4Ca(SO4)3:2H2O	 Delta_V -96.13 cm3/mol
	Leonhardite      -5.95*    -6.55   -0.60  MgSO4:4H2O	 Delta_V -58.34 cm3/mol
	Leonite          -9.14*   -12.79   -3.66  K2Mg(SO4)2:4H2O	 Delta_V -65.53 cm3/mol
	Magnesite        -0.87*    -8.60   -7.73  MgCO3	 Delta_V -78.69 cm3/mol
	Mirabilite       -2.19*    -4.41   -2.22  Na2SO4:10H2O	 Delta_V -24.46 cm3/mol
	Misenite        -61.20*   -71.57  -10.38  K8H6(SO4)7	 Delta_V -87.54 cm3/mol
	Mth(g)            2.46**   -0.40   -2.86  Mth	 Delta_V -33.00 cm3/mol	 Pressure 316.2 atm, phi 0.912.
	Nahcolite        -1.42*   -11.96  -10.53  NaHCO3	 Delta_V -42.38 cm3/mol
	Natron           -6.14*    -6.75   -0.61  Na2CO3:10H2O	 Delta_V -44.81 cm3/mol
	Nesquehonite     -4.03*    -8.81   -4.78  MgCO3:3H2O	 Delta_V -78.69 cm3/mol
	Ng(g)             1.67**   -1.47   -3.14  Ng	 Delta_V -30.00 cm3/mol	 Pressure  38.4 atm, phi 1.222.
	Pentahydrite     -5.62*    -6.62   -1.00  MgSO4:5H2O	 Delta_V -58.34 cm3/mol
	Pirssonite       -5.39*   -14.07   -8.68  Na2Ca(CO3)2:2H2O	 Delta_V -112.37 cm3/mol
	Polyhalite      -10.79*   -23.75  -12.96  K2MgCa2(SO4)4:2H2O	 Delta_V -159.95 cm3/mol
	Portlandite      -8.77*   -13.83   -5.05  Ca(OH)2	 Delta_V -27.61 cm3/mol
	Schoenite        -8.93*   -12.93   -4.01  K2Mg(SO4)2:6H2O	 Delta_V -65.53 cm3/mol
	Strontianite      0.88*    -9.19  -10.06  SrCO3	 Delta_V -67.76 cm3/mol
	Sylvite          -2.19*    -0.53    1.65  KCl	 Delta_V  12.38 cm3/mol
	Syngenite        -4.68*   -11.86   -7.18  K2Ca(SO4)2:H2O	 Delta_V -54.39 cm3/mol
	Trona            -7.19*   -18.15  -10.96  Na3H(CO3)2:2H2O	 Delta_V -87.18 cm3/mol
	                      *  with Delta_V * (P - 1) / 2.3RT.
	                      ** SI from Peng-Robinson fugacity - Delta_V * (P - 1) / 2.3RT.

------------------
End of simulation.
------------------

------------------------------------
Reading input data for simulation 3.
------------------------------------

	USE solution 1
	REACTION_TEMPERATURE
	 132 30 in 10
	USE GAS_PHASE 1
	REACTION 1
	CO2(g)  0.3282 H2Sg(g) 0.004922 Mth(g)  9.552 Ng(g)   1.146
	 -1. in 1
	USER_GRAPH
	 -headings temp calcite strontianite anhydrite gyps halite pressure
	 -axis_titles "Temperature / oC" "SI" "Pressure / atm"
	 10 graph_x tc
	 20 graph_y si("Calcite"), si("Strontianite"), si("Anhydrite"), si("Gypsum"), si("Halite")
	 30 graph_sy pressure
	END
-----------------------------------------
Beginning of batch-reaction calculations.
-----------------------------------------

Reaction step 1.

Using solution 1.	Solution after simulation 2.
Using gas phase 1.	Gas phase after simulation 2.
Using temperature 1.	
Using reaction 1.	

Reaction 1.	Irreversible reaction defined in simulation 3.

	 -1.000e+00 moles of the following reaction have been added:

	                 Relative
	Reactant            moles

	CO2(g)               0.32820
	H2Sg(g)              0.00492
	Mth(g)               9.55200
	Ng(g)                1.14600

	                 Relative
	Element             moles
	C                    0.32820
	H                    0.00984
	Mth                  9.55200
	Ng                   1.14600
	O                    0.65640
	Sg                   0.00492

-----------------------------------Gas phase-----------------------------------

Total pressure:  5.91      atmospheres          (Peng-Robinson calculation)
    Gas volume:   1.00e+00 liters
  Molar volume:   5.51e+00 liters/mole
   P * Vm / RT:  0.97952  (Compressibility Factor Z) 

                                                        Moles in gas
                                            ----------------------------------
Component         log P           P    phi     Initial       Final       Delta

CO2(g)            -0.28   5.217e-01  0.989   3.062e-01   1.602e-02  -2.902e-01
H2O(g)             0.48   3.036e+00  0.962   3.186e-01   9.322e-02  -2.254e-01
H2Sg(g)           -2.60   2.506e-03  0.980   2.328e-03   7.696e-05  -2.251e-03
Mth(g)             0.33   2.151e+00  1.000   9.218e+00   6.605e-02  -9.152e+00
Ng(g)             -0.71   1.957e-01  1.011   1.118e+00   6.010e-03  -1.112e+00

-----------------------------Solution composition------------------------------

	Elements           Molality       Moles

	Ba                1.975e-04   1.983e-04
	C                 8.448e-03   8.485e-03
	Ca                4.385e-01   4.404e-01
	Cl                3.965e+00   3.983e+00
	K                 1.856e-01   1.864e-01
	Mg                7.729e-02   7.763e-02
	Mth               2.077e-03   2.086e-03
	Na                2.945e+00   2.958e+00
	Ng                1.024e-04   1.028e-04
	S                 1.283e-03   1.289e-03
	Sg                7.583e-04   7.616e-04
	Sr                1.473e-02   1.479e-02

----------------------------Description of solution----------------------------

                                       pH  =   6.682      Charge balance
                                       pe  =   4.000      Adjusted to redox equilibrium
       Specific Conductance (uS/cm, 132 oC) = 877884
                          Density (g/cm3)  =   1.07312
                        Activity of water  =   0.860
                           Ionic strength  =   4.612e+00
                       Mass of water (kg)  =   1.004e+00
                 Total alkalinity (eq/kg)  =   8.767e-03
                       Total CO2 (mol/kg)  =   8.448e-03
                      Temperature (deg C)  = 132.00
                           Pressure (atm)  =  5.91
                  Electrical balance (eq)  =   2.167e-01
 Percent error, 100*(Cat-|An|)/(Cat+|An|)  =   2.64
                               Iterations  =  51
                         Gamma iterations  =   4
                      Osmotic coefficient  =   1.09629
                         Density of water  =   0.93318
                                  Total H  = 1.115058e+02
                                  Total O  = 5.577865e+01

----------------------------Distribution of species----------------------------

                                                           MacInnes   MacInnes
	                               MacInnes    Log       Log         Log 
   Species                 Molality    Activity  Molality  Activity     Gamma

   OH-                    2.516e-05   6.055e-06    -4.599    -5.218    -0.619
   H+                     1.606e-07   2.080e-07    -6.794    -6.682     0.112
   H2O                    5.551e+01   8.600e-01     1.744    -0.066     0.000
Ba               1.975e-04
   Ba+2                   1.975e-04   1.365e-05    -3.705    -4.865    -1.160
C(4)             8.448e-03
   HCO3-                  4.713e-03   4.437e-03    -2.327    -2.353    -0.026
   CO2                    2.146e-03   4.574e-03    -2.668    -2.340     0.329
   CaCO3                  1.418e-03   1.418e-03    -2.848    -2.848     0.000
   CO3-2                  1.174e-04   1.122e-06    -3.930    -5.950    -2.020
   MgCO3                  5.363e-05   5.363e-05    -4.271    -4.271     0.000
Ca               4.385e-01
   Ca+2                   4.371e-01   5.622e-02    -0.359    -1.250    -0.891
   CaCO3                  1.418e-03   1.418e-03    -2.848    -2.848     0.000
Cl               3.965e+00
   Cl-                    3.965e+00   2.713e+00     0.598     0.434    -0.165
K                1.856e-01
   K+                     1.856e-01   1.062e-01    -0.731    -0.974    -0.243
Mg               7.729e-02
   Mg+2                   7.707e-02   1.072e-02    -1.113    -1.970    -0.857
   MgOH+                  1.696e-04   6.606e-05    -3.771    -4.180    -0.410
   MgCO3                  5.363e-05   5.363e-05    -4.271    -4.271     0.000
Mth              2.077e-03
   Mth                    2.077e-03   2.077e-03    -2.682    -2.682     0.000
Na               2.945e+00
   Na+                    2.945e+00   1.956e+00     0.469     0.291    -0.178
Ng               1.024e-04
   Ng                     1.024e-04   1.024e-04    -3.990    -3.990     0.000
S(6)             1.283e-03
   SO4-2                  1.283e-03   4.885e-05    -2.892    -4.311    -1.419
   HSO4-                  6.332e-08   2.841e-08    -7.198    -7.546    -0.348
Sg               7.583e-04
   HSg-                   6.444e-04   1.174e-04    -3.191    -3.931    -0.740
   H2Sg                   9.502e-05   9.502e-05    -4.022    -4.022     0.000
   Sg-2                   1.882e-05   1.499e-08    -4.725    -7.824    -3.099
Sr               1.473e-02
   Sr+2                   1.473e-02   2.836e-03    -1.832    -2.547    -0.715

------------------------------Saturation indices-------------------------------

	Phase               SI   log IAP   log K(405 K,   6 atm)

	Anhydrite         2.14*    -5.56   -7.70  CaSO4	 Delta_V -47.21 cm3/mol
	Aragonite         2.40*    -7.20   -9.60  CaCO3	 Delta_V -67.56 cm3/mol
	Arcanite         -5.70*    -6.26   -0.56  K2SO4	 Delta_V  -7.18 cm3/mol
	Bischofite       -5.71*    -1.50    4.21  MgCl2:6H2O	 Delta_V -26.39 cm3/mol
	Bloedite         -7.93*   -10.27   -2.34  Na2Mg(SO4)2:4H2O	 Delta_V -82.80 cm3/mol
	Brucite          -2.47*   -12.41   -9.94  Mg(OH)2	 Delta_V -38.74 cm3/mol
	Burkeite        -12.06*   -12.82   -0.77  Na6CO3(SO4)2	 Delta_V -93.72 cm3/mol
	Calcite           2.60*    -7.20   -9.80  CaCO3	 Delta_V -17.56 cm3/mol
	Carnallite       -6.37*    -2.04    4.33  KMgCl3:6H2O	 Delta_V -14.01 cm3/mol
	Celestite         0.58*    -6.86   -7.44  SrSO4	 Delta_V -47.41 cm3/mol
	CO2(g)           -0.29**   -2.34   -2.05  CO2	 Delta_V -67.95 cm3/mol	 Pressure   0.5 atm, phi 0.989.
	Dolomite          3.78*   -15.12  -18.90  CaMg(CO3)2	 Delta_V -146.25 cm3/mol
	Epsomite         -5.81*    -6.74   -0.93  MgSO4:7H2O	 Delta_V -58.34 cm3/mol
	Gaylussite       -3.48*   -12.89   -9.41  CaNa2(CO3)2:5H2O	 Delta_V -112.37 cm3/mol
	Glaserite        -7.45*   -11.25   -3.80  NaK3(SO4)2	 Delta_V -23.00 cm3/mol
	Glauberite       -4.05*    -9.29   -5.24  Na2Ca(SO4)2	 Delta_V -71.67 cm3/mol
	Gypsum           -0.50*    -5.69   -5.19  CaSO4:2H2O	 Delta_V -47.21 cm3/mol
	H2O(g)            0.47**   -0.07   -0.53  H2O	 Pressure   3.0 atm, phi 0.962.
	H2Sg(g)          -2.61**  -10.61   -8.00  H2Sg	 Delta_V -30.00 cm3/mol	 Pressure   0.0 atm, phi 0.980.
	Halite           -0.77*     0.72    1.49  NaCl	 Delta_V   3.75 cm3/mol
	Hexahydrite      -6.38*    -6.67   -0.30  MgSO4:6H2O	 Delta_V -58.34 cm3/mol
	Kainite          -6.83*    -7.02   -0.19  KMgClSO4:3H2O	 Delta_V -45.96 cm3/mol
	Kalicinite       -3.55*   -13.61  -10.06  KHCO3	 Delta_V -33.74 cm3/mol
	Kieserite        -6.23*    -6.35   -0.12  MgSO4:H2O	 Delta_V -58.34 cm3/mol
	Labile_S         -7.48*   -13.15   -5.67  Na4Ca(SO4)3:2H2O	 Delta_V -96.13 cm3/mol
	Leonhardite      -5.66*    -6.54   -0.88  MgSO4:4H2O	 Delta_V -58.34 cm3/mol
	Leonite          -8.83*   -12.80   -3.97  K2Mg(SO4)2:4H2O	 Delta_V -65.53 cm3/mol
	Magnesite         0.19*    -7.92   -8.11  MgCO3	 Delta_V -78.69 cm3/mol
	Mirabilite       -2.04*    -4.38   -2.34  Na2SO4:10H2O	 Delta_V -24.46 cm3/mol
	Misenite        -67.26*   -78.06  -10.80  K8H6(SO4)7	 Delta_V -87.54 cm3/mol
	Mth(g)            0.33**   -2.68   -3.02  Mth	 Delta_V -33.00 cm3/mol	 Pressure   2.2 atm, phi 1.000.
	Nahcolite        -1.60*   -12.34  -10.74  NaHCO3	 Delta_V -42.38 cm3/mol
	Natron           -5.20*    -6.02   -0.82  Na2CO3:10H2O	 Delta_V -44.81 cm3/mol
	Nesquehonite     -2.95*    -8.12   -5.16  MgCO3:3H2O	 Delta_V -78.69 cm3/mol
	Ng(g)            -0.70**   -3.99   -3.29  Ng	 Delta_V -30.00 cm3/mol	 Pressure   0.2 atm, phi 1.011.
	Pentahydrite     -5.33*    -6.61   -1.28  MgSO4:5H2O	 Delta_V -58.34 cm3/mol
	Pirssonite       -3.47*   -12.70   -9.23  Na2Ca(CO3)2:2H2O	 Delta_V -112.37 cm3/mol
	Polyhalite      -10.06*   -23.79  -13.73  K2MgCa2(SO4)4:2H2O	 Delta_V -159.95 cm3/mol
	Portlandite      -6.50*   -11.69   -5.19  Ca(OH)2	 Delta_V -27.61 cm3/mol
	Schoenite        -8.61*   -12.93   -4.32  K2Mg(SO4)2:6H2O	 Delta_V -65.53 cm3/mol
	Strontianite      1.89*    -8.50  -10.39  SrCO3	 Delta_V -67.76 cm3/mol
	Sylvite          -2.25*    -0.54    1.71  KCl	 Delta_V  12.38 cm3/mol
	Syngenite        -4.44*   -11.89   -7.44  K2Ca(SO4)2:H2O	 Delta_V -54.39 cm3/mol
	Trona            -6.46*   -17.84  -11.38  Na3H(CO3)2:2H2O	 Delta_V -87.18 cm3/mol
	                      *  with Delta_V * (P - 1) / 2.3RT.
	                      ** SI from Peng-Robinson fugacity - Delta_V * (P - 1) / 2.3RT.

Reaction step 2.

Using solution 1.	Solution after simulation 2.
Using gas phase 1.	Gas phase after simulation 2.
Using temperature 1.	
Using reaction 1.	

Reaction 1.	Irreversible reaction defined in simulation 3.

	 -1.000e+00 moles of the following reaction have been added:

	                 Relative
	Reactant            moles

	CO2(g)               0.32820
	H2Sg(g)              0.00492
	Mth(g)               9.55200
	Ng(g)                1.14600

	                 Relative
	Element             moles
	C                    0.32820
	H                    0.00984
	Mth                  9.55200
	Ng                   1.14600
	O                    0.65640
	Sg                   0.00492

-----------------------------------Gas phase-----------------------------------

Total pressure:  4.87      atmospheres          (Peng-Robinson calculation)
    Gas volume:   1.00e+00 liters
  Molar volume:   6.53e+00 liters/mole
   P * Vm / RT:  0.98451  (Compressibility Factor Z) 

                                                        Moles in gas
                                            ----------------------------------
Component         log P           P    phi     Initial       Final       Delta

CO2(g)            -0.30   5.038e-01  0.989   3.062e-01   1.583e-02  -2.904e-01
H2O(g)             0.32   2.069e+00  0.968   3.186e-01   6.503e-02  -2.536e-01
H2Sg(g)           -2.54   2.890e-03  0.982   2.328e-03   9.083e-05  -2.237e-03
Mth(g)             0.32   2.106e+00  0.999   9.218e+00   6.621e-02  -9.152e+00
Ng(g)             -0.72   1.915e-01  1.008   1.118e+00   6.018e-03  -1.112e+00

-----------------------------Solution composition------------------------------

	Elements           Molality       Moles

	Ba                1.974e-04   1.983e-04
	C                 8.629e-03   8.671e-03
	Ca                4.383e-01   4.404e-01
	Cl                3.963e+00   3.983e+00
	K                 1.855e-01   1.864e-01
	Mg                7.725e-02   7.763e-02
	Mth               1.925e-03   1.934e-03
	Na                2.944e+00   2.958e+00
	Ng                9.442e-05   9.488e-05
	S                 1.282e-03   1.289e-03
	Sg                7.441e-04   7.477e-04
	Sr                1.472e-02   1.479e-02

----------------------------Description of solution----------------------------

                                       pH  =   6.583      Charge balance
                                       pe  =   4.000      Adjusted to redox equilibrium
       Specific Conductance (uS/cm, 120 oC) = 853522
                          Density (g/cm3)  =   1.06753
                        Activity of water  =   0.858
                           Ionic strength  =   4.610e+00
                       Mass of water (kg)  =   1.005e+00
                 Total alkalinity (eq/kg)  =   8.763e-03
                       Total CO2 (mol/kg)  =   8.629e-03
                      Temperature (deg C)  = 120.67
                           Pressure (atm)  =  4.87
                  Electrical balance (eq)  =   2.167e-01
 Percent error, 100*(Cat-|An|)/(Cat+|An|)  =   2.64
                               Iterations  =  49
                         Gamma iterations  =   4
                      Osmotic coefficient  =   1.11150
                         Density of water  =   0.94262
                                  Total H  = 1.115621e+02
                                  Total O  = 5.580722e+01

----------------------------Distribution of species----------------------------

                                                           MacInnes   MacInnes
	                               MacInnes    Log       Log         Log 
   Species                 Molality    Activity  Molality  Activity     Gamma

   OH-                    1.488e-05   3.508e-06    -4.827    -5.455    -0.628
   H+                     1.803e-07   2.614e-07    -6.744    -6.583     0.161
   H2O                    5.551e+01   8.582e-01     1.744    -0.066     0.000
Ba               1.974e-04
   Ba+2                   1.974e-04   1.725e-05    -3.705    -4.763    -1.059
C(4)             8.629e-03
   HCO3-                  4.911e-03   4.276e-03    -2.309    -2.369    -0.060
   CO2                    2.170e-03   4.624e-03    -2.664    -2.335     0.329
   CaCO3                  1.390e-03   1.390e-03    -2.857    -2.857     0.000
   CO3-2                  1.044e-04   9.739e-07    -3.981    -6.012    -2.030
   MgCO3                  5.292e-05   5.292e-05    -4.276    -4.276     0.000
Ca               4.383e-01
   Ca+2                   4.369e-01   7.441e-02    -0.360    -1.128    -0.769
   CaCO3                  1.390e-03   1.390e-03    -2.857    -2.857     0.000
Cl               3.963e+00
   Cl-                    3.963e+00   2.696e+00     0.598     0.431    -0.167
K                1.855e-01
   K+                     1.855e-01   1.111e-01    -0.732    -0.954    -0.223
Mg               7.725e-02
   Mg+2                   7.710e-02   1.457e-02    -1.113    -1.836    -0.723
   MgOH+                  9.577e-05   4.117e-05    -4.019    -4.385    -0.367
   MgCO3                  5.292e-05   5.292e-05    -4.276    -4.276     0.000
Mth              1.925e-03
   Mth                    1.925e-03   1.925e-03    -2.716    -2.716     0.000
Na               2.944e+00
   Na+                    2.944e+00   2.151e+00     0.469     0.333    -0.136
Ng               9.442e-05
   Ng                     9.442e-05   9.442e-05    -4.025    -4.025     0.000
S(6)             1.282e-03
   SO4-2                  1.282e-03   4.311e-05    -2.892    -4.365    -1.473
   HSO4-                  4.767e-08   2.142e-08    -7.322    -7.669    -0.348
Sg               7.441e-04
   HSg-                   6.287e-04   1.146e-04    -3.202    -3.941    -0.739
   H2Sg                   1.070e-04   1.070e-04    -3.971    -3.971     0.000
   Sg-2                   8.441e-06   7.560e-09    -5.074    -8.121    -3.048
Sr               1.472e-02
   Sr+2                   1.472e-02   3.498e-03    -1.832    -2.456    -0.624

------------------------------Saturation indices-------------------------------

	Phase               SI   log IAP   log K(393 K,   5 atm)

	Anhydrite         1.70*    -5.49   -7.19  CaSO4	 Delta_V -37.13 cm3/mol
	Aragonite         2.25*    -7.14   -9.39  CaCO3	 Delta_V -56.93 cm3/mol
	Arcanite         -5.62*    -6.27   -0.66  K2SO4	 Delta_V   2.70 cm3/mol
	Bischofite       -5.60*    -1.37    4.23  MgCl2:6H2O	 Delta_V -17.59 cm3/mol
	Bloedite         -7.82*   -10.17   -2.34  Na2Mg(SO4)2:4H2O	 Delta_V -61.91 cm3/mol
	Brucite          -2.73*   -12.75  -10.01  Mg(OH)2	 Delta_V -35.14 cm3/mol
	Burkeite        -11.98*   -12.75   -0.77  Na6CO3(SO4)2	 Delta_V -64.34 cm3/mol
	Calcite           2.46*    -7.14   -9.60  CaCO3	 Delta_V  -6.93 cm3/mol
	Carnallite       -6.23*    -1.90    4.33  KMgCl3:6H2O	 Delta_V  -1.50 cm3/mol
	Celestite         0.50*    -6.82   -7.32  SrSO4	 Delta_V -38.10 cm3/mol
	CO2(g)           -0.30**   -2.33   -2.03  CO2	 Delta_V -59.71 cm3/mol	 Pressure   0.5 atm, phi 0.989.
	Dolomite          3.77*   -14.99  -18.76  CaMg(CO3)2	 Delta_V -123.78 cm3/mol
	Epsomite         -5.66*    -6.67   -1.00  MgSO4:7H2O	 Delta_V -47.06 cm3/mol
	Gaylussite       -3.40*   -12.82   -9.42  CaNa2(CO3)2:5H2O	 Delta_V -91.57 cm3/mol
	Glaserite        -7.46*   -11.26   -3.80  NaK3(SO4)2	 Delta_V  -3.38 cm3/mol
	Glauberite       -3.95*    -9.19   -5.24  Na2Ca(SO4)2	 Delta_V -51.98 cm3/mol
	Gypsum           -0.54*    -5.63   -5.09  CaSO4:2H2O	 Delta_V -37.13 cm3/mol
	H2O(g)            0.30**   -0.07   -0.37  H2O	 Pressure   2.1 atm, phi 0.968.
	H2Sg(g)          -2.55**  -10.52   -7.98  H2Sg	 Delta_V -30.00 cm3/mol	 Pressure   0.0 atm, phi 0.982.
	Halite           -0.76*     0.76    1.52  NaCl	 Delta_V   7.31 cm3/mol
	Hexahydrite      -6.16*    -6.60   -0.44  MgSO4:6H2O	 Delta_V -47.06 cm3/mol
	Kainite          -6.73*    -6.92   -0.19  KMgClSO4:3H2O	 Delta_V -30.98 cm3/mol
	Kalicinite       -3.49*   -13.55  -10.06  KHCO3	 Delta_V -24.41 cm3/mol
	Kieserite        -6.15*    -6.27   -0.12  MgSO4:H2O	 Delta_V -47.06 cm3/mol
	Labile_S         -7.36*   -13.03   -5.67  Na4Ca(SO4)3:2H2O	 Delta_V -66.82 cm3/mol
	Leonhardite      -5.58*    -6.47   -0.88  MgSO4:4H2O	 Delta_V -47.06 cm3/mol
	Leonite          -8.76*   -12.74   -3.98  K2Mg(SO4)2:4H2O	 Delta_V -44.36 cm3/mol
	Magnesite         0.25*    -7.85   -8.09  MgCO3	 Delta_V -66.86 cm3/mol
	Mirabilite       -2.82*    -4.36   -1.54  Na2SO4:10H2O	 Delta_V -14.85 cm3/mol
	Misenite        -66.88*   -77.69  -10.80  K8H6(SO4)7	 Delta_V -24.96 cm3/mol
	Mth(g)            0.32**   -2.72   -3.04  Mth	 Delta_V -33.00 cm3/mol	 Pressure   2.1 atm, phi 0.999.
	Nahcolite        -1.52*   -12.26  -10.74  NaHCO3	 Delta_V -33.18 cm3/mol
	Natron           -5.19*    -6.01   -0.82  Na2CO3:10H2O	 Delta_V -34.64 cm3/mol
	Nesquehonite     -2.88*    -8.05   -5.16  MgCO3:3H2O	 Delta_V -66.86 cm3/mol
	Ng(g)            -0.71**   -4.02   -3.31  Ng	 Delta_V -30.00 cm3/mol	 Pressure   0.2 atm, phi 1.008.
	Pentahydrite     -5.25*    -6.53   -1.28  MgSO4:5H2O	 Delta_V -47.06 cm3/mol
	Pirssonite       -3.39*   -12.62   -9.23  Na2Ca(CO3)2:2H2O	 Delta_V -91.57 cm3/mol
	Polyhalite       -9.86*   -23.60  -13.74  K2MgCa2(SO4)4:2H2O	 Delta_V -118.62 cm3/mol
	Portlandite      -6.85*   -12.04   -5.19  Ca(OH)2	 Delta_V -25.21 cm3/mol
	Schoenite        -8.55*   -12.87   -4.33  K2Mg(SO4)2:6H2O	 Delta_V -44.36 cm3/mol
	Strontianite      1.74*    -8.47  -10.21  SrCO3	 Delta_V -57.90 cm3/mol
	Sylvite          -2.17*    -0.52    1.65  KCl	 Delta_V  16.08 cm3/mol
	Syngenite        -4.39*   -11.83   -7.45  K2Ca(SO4)2:H2O	 Delta_V -34.43 cm3/mol
	Trona            -6.36*   -17.74  -11.38  Na3H(CO3)2:2H2O	 Delta_V -67.82 cm3/mol
	                      *  with Delta_V * (P - 1) / 2.3RT.
	                      ** SI from Peng-Robinson fugacity - Delta_V * (P - 1) / 2.3RT.

Reaction step 3.

Using solution 1.	Solution after simulation 2.
Using gas phase 1.	Gas phase after simulation 2.
Using temperature 1.	
Using reaction 1.	

Reaction 1.	Irreversible reaction defined in simulation 3.

	 -1.000e+00 moles of the following reaction have been added:

	                 Relative
	Reactant            moles

	CO2(g)               0.32820
	H2Sg(g)              0.00492
	Mth(g)               9.55200
	Ng(g)                1.14600

	                 Relative
	Element             moles
	C                    0.32820
	H                    0.00984
	Mth                  9.55200
	Ng                   1.14600
	O                    0.65640
	Sg                   0.00492

-----------------------------------Gas phase-----------------------------------

Total pressure:  4.11      atmospheres          (Peng-Robinson calculation)
    Gas volume:   1.00e+00 liters
  Molar volume:   7.54e+00 liters/mole
   P * Vm / RT:  0.98815  (Compressibility Factor Z) 

                                                        Moles in gas
                                            ----------------------------------
Component         log P           P    phi     Initial       Final       Delta

CO2(g)            -0.32   4.837e-01  0.990   3.062e-01   1.559e-02  -2.906e-01
H2O(g)             0.14   1.381e+00  0.971   3.186e-01   4.452e-02  -2.741e-01
H2Sg(g)           -2.49   3.255e-03  0.984   2.328e-03   1.049e-04  -2.223e-03
Mth(g)             0.31   2.057e+00  0.998   9.218e+00   6.632e-02  -9.152e+00
Ng(g)             -0.73   1.868e-01  1.005   1.118e+00   6.024e-03  -1.112e+00

-----------------------------Solution composition------------------------------

	Elements           Molality       Moles

	Ba                1.973e-04   1.983e-04
	C                 8.864e-03   8.910e-03
	Ca                4.381e-01   4.404e-01
	Cl                3.962e+00   3.983e+00
	K                 1.854e-01   1.864e-01
	Mg                7.722e-02   7.763e-02
	Mth               1.807e-03   1.817e-03
	Na                2.943e+00   2.958e+00
	Ng                8.820e-05   8.866e-05
	S                 1.282e-03   1.289e-03
	Sg                7.298e-04   7.336e-04
	Sr                1.472e-02   1.479e-02

----------------------------Description of solution----------------------------

                                       pH  =   6.494      Charge balance
                                       pe  =   4.000      Adjusted to redox equilibrium
       Specific Conductance (uS/cm, 109 oC) = 826156
                          Density (g/cm3)  =   1.07008
                        Activity of water  =   0.857
                           Ionic strength  =   4.609e+00
                       Mass of water (kg)  =   1.005e+00
                 Total alkalinity (eq/kg)  =   8.759e-03
                       Total CO2 (mol/kg)  =   8.864e-03
                      Temperature (deg C)  = 109.33
                           Pressure (atm)  =  4.11
                  Electrical balance (eq)  =   2.167e-01
 Percent error, 100*(Cat-|An|)/(Cat+|An|)  =   2.64
                               Iterations  =  52
                         Gamma iterations  =   3
                      Osmotic coefficient  =   1.12547
                         Density of water  =   0.95150
                                  Total H  = 1.116031e+02
                                  Total O  = 5.582820e+01

----------------------------Distribution of species----------------------------

                                                           MacInnes   MacInnes
	                               MacInnes    Log       Log         Log 
   Species                 Molality    Activity  Molality  Activity     Gamma

   OH-                    8.688e-06   2.003e-06    -5.061    -5.698    -0.637
   H+                     1.983e-07   3.205e-07    -6.703    -6.494     0.209
   H2O                    5.551e+01   8.566e-01     1.744    -0.067     0.000
Ba               1.973e-04
   Ba+2                   1.973e-04   2.148e-05    -3.705    -4.668    -0.963
C(4)             8.864e-03
   HCO3-                  5.209e-03   4.190e-03    -2.283    -2.378    -0.094
   CO2                    2.217e-03   4.723e-03    -2.654    -2.326     0.328
   CaCO3                  1.290e-03   1.290e-03    -2.889    -2.889     0.000
   CO3-2                  9.543e-05   8.600e-07    -4.020    -6.066    -2.045
   MgCO3                  5.231e-05   5.231e-05    -4.281    -4.281     0.000
Ca               4.381e-01
   Ca+2                   4.368e-01   9.715e-02    -0.360    -1.013    -0.653
   CaCO3                  1.290e-03   1.290e-03    -2.889    -2.889     0.000
Cl               3.962e+00
   Cl-                    3.962e+00   2.672e+00     0.598     0.427    -0.171
K                1.854e-01
   K+                     1.854e-01   1.158e-01    -0.732    -0.936    -0.205
Mg               7.722e-02
   Mg+2                   7.712e-02   1.952e-02    -1.113    -1.709    -0.597
   MgOH+                  5.303e-05   2.506e-05    -4.275    -4.601    -0.325
   MgCO3                  5.231e-05   5.231e-05    -4.281    -4.281     0.000
Mth              1.807e-03
   Mth                    1.807e-03   1.807e-03    -2.743    -2.743     0.000
Na               2.943e+00
   Na+                    2.943e+00   2.351e+00     0.469     0.371    -0.097
Ng               8.820e-05
   Ng                     8.820e-05   8.820e-05    -4.055    -4.055     0.000
S(6)             1.282e-03
   SO4-2                  1.282e-03   3.768e-05    -2.892    -4.424    -1.532
   HSO4-                  3.492e-08   1.568e-08    -7.457    -7.805    -0.348
Sg               7.298e-04
   HSg-                   6.063e-04   1.105e-04    -3.217    -3.957    -0.739
   H2Sg                   1.198e-04   1.198e-04    -3.922    -3.922     0.000
   Sg-2                   3.768e-06   3.759e-09    -5.424    -8.425    -3.001
Sr               1.472e-02
   Sr+2                   1.472e-02   4.254e-03    -1.832    -2.371    -0.539

------------------------------Saturation indices-------------------------------

	Phase               SI   log IAP   log K(382 K,   4 atm)

	Anhydrite         1.27*    -5.44   -6.71  CaSO4	 Delta_V -28.35 cm3/mol
	Aragonite         2.12*    -7.08   -9.20  CaCO3	 Delta_V -47.66 cm3/mol
	Arcanite         -5.53*    -6.30   -0.76  K2SO4	 Delta_V  11.22 cm3/mol
	Bischofite       -5.51*    -1.26    4.25  MgCl2:6H2O	 Delta_V  -9.84 cm3/mol
	Bloedite         -7.74*   -10.08   -2.35  Na2Mg(SO4)2:4H2O	 Delta_V -43.78 cm3/mol
	Brucite          -3.01*   -13.11  -10.09  Mg(OH)2	 Delta_V -31.96 cm3/mol
	Burkeite        -11.91*   -12.69   -0.77  Na6CO3(SO4)2	 Delta_V -39.15 cm3/mol
	Calcite           2.33*    -7.08   -9.41  CaCO3	 Delta_V   2.34 cm3/mol
	Carnallite       -6.10*    -1.77    4.33  KMgCl3:6H2O	 Delta_V   9.43 cm3/mol
	Celestite         0.41*    -6.80   -7.21  SrSO4	 Delta_V -29.93 cm3/mol
	CO2(g)           -0.32**   -2.33   -2.00  CO2	 Delta_V -52.52 cm3/mol	 Pressure   0.5 atm, phi 0.990.
	Dolomite          3.75*   -14.85  -18.60  CaMg(CO3)2	 Delta_V -104.13 cm3/mol
	Epsomite         -5.52*    -6.60   -1.09  MgSO4:7H2O	 Delta_V -37.17 cm3/mol
	Gaylussite       -3.32*   -12.74   -9.42  CaNa2(CO3)2:5H2O	 Delta_V -73.58 cm3/mol
	Glaserite        -7.48*   -11.29   -3.80  NaK3(SO4)2	 Delta_V  13.52 cm3/mol
	Glauberite       -3.87*    -9.12   -5.24  Na2Ca(SO4)2	 Delta_V -34.96 cm3/mol
	Gypsum           -0.58*    -5.57   -4.99  CaSO4:2H2O	 Delta_V -28.35 cm3/mol
	H2O(g)            0.13**   -0.07   -0.19  H2O	 Pressure   1.4 atm, phi 0.971.
	H2Sg(g)          -2.49**  -10.45   -7.96  H2Sg	 Delta_V -30.00 cm3/mol	 Pressure   0.0 atm, phi 0.984.
	Halite           -0.75*     0.80    1.54  NaCl	 Delta_V  10.36 cm3/mol
	Hexahydrite      -5.95*    -6.54   -0.58  MgSO4:6H2O	 Delta_V -37.17 cm3/mol
	Kainite          -6.65*    -6.84   -0.19  KMgClSO4:3H2O	 Delta_V -17.89 cm3/mol
	Kalicinite       -3.44*   -13.50  -10.06  KHCO3	 Delta_V -16.31 cm3/mol
	Kieserite        -6.08*    -6.20   -0.12  MgSO4:H2O	 Delta_V -37.17 cm3/mol
	Labile_S         -7.26*   -12.93   -5.67  Na4Ca(SO4)3:2H2O	 Delta_V -41.57 cm3/mol
	Leonhardite      -5.52*    -6.40   -0.89  MgSO4:4H2O	 Delta_V -37.17 cm3/mol
	Leonite          -8.72*   -12.70   -3.98  K2Mg(SO4)2:4H2O	 Delta_V -25.95 cm3/mol
	Magnesite         0.29*    -7.77   -8.07  MgCO3	 Delta_V -56.48 cm3/mol
	Mirabilite       -3.44*    -4.35   -0.92  Na2SO4:10H2O	 Delta_V  -6.61 cm3/mol
	Misenite        -66.62*   -77.42  -10.81  K8H6(SO4)7	 Delta_V  29.25 cm3/mol
	Mth(g)            0.31**   -2.74   -3.06  Mth	 Delta_V -33.00 cm3/mol	 Pressure   2.1 atm, phi 0.998.
	Nahcolite        -1.45*   -12.19  -10.74  NaHCO3	 Delta_V -25.22 cm3/mol
	Natron           -5.17*    -5.99   -0.82  Na2CO3:10H2O	 Delta_V -25.92 cm3/mol
	Nesquehonite     -2.81*    -7.98   -5.16  MgCO3:3H2O	 Delta_V -56.48 cm3/mol
	Ng(g)            -0.73**   -4.05   -3.33  Ng	 Delta_V -30.00 cm3/mol	 Pressure   0.2 atm, phi 1.005.
	Pentahydrite     -5.19*    -6.47   -1.28  MgSO4:5H2O	 Delta_V -37.17 cm3/mol
	Pirssonite       -3.30*   -12.54   -9.23  Na2Ca(CO3)2:2H2O	 Delta_V -73.58 cm3/mol
	Polyhalite       -9.70*   -23.44  -13.74  K2MgCa2(SO4)4:2H2O	 Delta_V -82.64 cm3/mol
	Portlandite      -7.22*   -12.41   -5.19  Ca(OH)2	 Delta_V -23.14 cm3/mol
	Schoenite        -8.51*   -12.83   -4.33  K2Mg(SO4)2:6H2O	 Delta_V -25.95 cm3/mol
	Strontianite      1.60*    -8.44  -10.04  SrCO3	 Delta_V -49.24 cm3/mol
	Sylvite          -2.09*    -0.51    1.58  KCl	 Delta_V  19.27 cm3/mol
	Syngenite        -4.35*   -11.80   -7.45  K2Ca(SO4)2:H2O	 Delta_V -17.13 cm3/mol
	Trona            -6.26*   -17.65  -11.38  Na3H(CO3)2:2H2O	 Delta_V -51.14 cm3/mol
	                      *  with Delta_V * (P - 1) / 2.3RT.
	                      ** SI from Peng-Robinson fugacity - Delta_V * (P - 1) / 2.3RT.

Reaction step 4.

Using solution 1.	Solution after simulation 2.
Using gas phase 1.	Gas phase after simulation 2.
Using temperature 1.	
Using reaction 1.	

Reaction 1.	Irreversible reaction defined in simulation 3.

	 -1.000e+00 moles of the following reaction have been added:

	                 Relative
	Reactant            moles

	CO2(g)               0.32820
	H2Sg(g)              0.00492
	Mth(g)               9.55200
	Ng(g)                1.14600

	                 Relative
	Element             moles
	C                    0.32820
	H                    0.00984
	Mth                  9.55200
	Ng                   1.14600
	O                    0.65640
	Sg                   0.00492

-----------------------------------Gas phase-----------------------------------

Total pressure:  3.55      atmospheres          (Peng-Robinson calculation)
    Gas volume:   1.00e+00 liters
  Molar volume:   8.50e+00 liters/mole
   P * Vm / RT:  0.99072  (Compressibility Factor Z) 

                                                        Moles in gas
                                            ----------------------------------
Component         log P           P    phi     Initial       Final       Delta

CO2(g)            -0.34   4.614e-01  0.990   3.062e-01   1.529e-02  -2.909e-01
H2O(g)            -0.05   9.005e-01  0.974   3.186e-01   2.984e-02  -2.887e-01
H2Sg(g)           -2.44   3.601e-03  0.985   2.328e-03   1.193e-04  -2.209e-03
Mth(g)             0.30   2.004e+00  0.997   9.218e+00   6.641e-02  -9.152e+00
Ng(g)             -0.74   1.819e-01  1.004   1.118e+00   6.029e-03  -1.112e+00

-----------------------------Solution composition------------------------------

	Elements           Molality       Moles

	Ba                1.972e-04   1.983e-04
	C                 9.162e-03   9.213e-03
	Ca                4.380e-01   4.404e-01
	Cl                3.961e+00   3.983e+00
	K                 1.854e-01   1.864e-01
	Mg                7.720e-02   7.763e-02
	Mth               1.724e-03   1.734e-03
	Na                2.942e+00   2.958e+00
	Ng                8.359e-05   8.405e-05
	S                 1.282e-03   1.289e-03
	Sg                7.153e-04   7.192e-04
	Sr                1.471e-02   1.479e-02

----------------------------Description of solution----------------------------

                                       pH  =   6.415      Charge balance
                                       pe  =   4.000      Adjusted to redox equilibrium
       Specific Conductance (uS/cm, 98 oC) = 794335
                          Density (g/cm3)  =   1.07830
                        Activity of water  =   0.855
                           Ionic strength  =   4.608e+00
                       Mass of water (kg)  =   1.006e+00
                 Total alkalinity (eq/kg)  =   8.757e-03
                       Total CO2 (mol/kg)  =   9.162e-03
                      Temperature (deg C)  =  98.00
                           Pressure (atm)  =  3.55
                  Electrical balance (eq)  =   2.167e-01
 Percent error, 100*(Cat-|An|)/(Cat+|An|)  =   2.64
                               Iterations  =  50
                         Gamma iterations  =   4
                      Osmotic coefficient  =   1.13810
                         Density of water  =   0.95982
                                  Total H  = 1.116324e+02
                                  Total O  = 5.584348e+01

----------------------------Distribution of species----------------------------

                                                           MacInnes   MacInnes
	                               MacInnes    Log       Log         Log 
   Species                 Molality    Activity  Molality  Activity     Gamma

   OH-                    4.976e-06   1.121e-06    -5.303    -5.950    -0.647
   H+                     2.142e-07   3.848e-07    -6.669    -6.415     0.254
   H2O                    5.551e+01   8.552e-01     1.744    -0.068     0.000
Ba               1.972e-04
   Ba+2                   1.972e-04   2.637e-05    -3.705    -4.579    -0.874
C(4)             9.162e-03
   HCO3-                  5.600e-03   4.160e-03    -2.252    -2.381    -0.129
   CO2                    2.291e-03   4.881e-03    -2.640    -2.312     0.328
   CaCO3                  1.130e-03   1.130e-03    -2.947    -2.947     0.000
   CO3-2                  8.871e-05   7.659e-07    -4.052    -6.116    -2.064
   MgCO3                  5.139e-05   5.139e-05    -4.289    -4.289     0.000
Ca               4.380e-01
   Ca+2                   4.369e-01   1.251e-01    -0.360    -0.903    -0.543
   CaCO3                  1.130e-03   1.130e-03    -2.947    -2.947     0.000
Cl               3.961e+00
   Cl-                    3.961e+00   2.641e+00     0.598     0.422    -0.176
K                1.854e-01
   K+                     1.854e-01   1.202e-01    -0.732    -0.920    -0.188
Mg               7.720e-02
   Mg+2                   7.712e-02   2.579e-02    -1.113    -1.589    -0.476
   MgCO3                  5.139e-05   5.139e-05    -4.289    -4.289     0.000
   MgOH+                  2.866e-05   1.483e-05    -4.543    -4.829    -0.286
Mth              1.724e-03
   Mth                    1.724e-03   1.724e-03    -2.763    -2.763     0.000
Na               2.942e+00
   Na+                    2.942e+00   2.554e+00     0.469     0.407    -0.061
Ng               8.359e-05
   Ng                     8.359e-05   8.359e-05    -4.078    -4.078     0.000
S(6)             1.282e-03
   SO4-2                  1.282e-03   3.267e-05    -2.892    -4.486    -1.594
   HSO4-                  2.498e-08   1.121e-08    -7.602    -7.950    -0.348
Sg               7.153e-04
   HSg-                   5.791e-04   1.055e-04    -3.237    -3.977    -0.740
   H2Sg                   1.345e-04   1.345e-04    -3.871    -3.871     0.000
   Sg-2                   1.669e-06   1.838e-09    -5.778    -8.736    -2.958
Sr               1.471e-02
   Sr+2                   1.471e-02   5.103e-03    -1.832    -2.292    -0.460

------------------------------Saturation indices-------------------------------

	Phase               SI   log IAP   log K(371 K,   4 atm)

	Anhydrite         0.86*    -5.39   -6.25  CaSO4	 Delta_V -20.86 cm3/mol
	Aragonite         2.00*    -7.02   -9.02  CaCO3	 Delta_V -39.75 cm3/mol
	Arcanite         -5.45*    -6.33   -0.87  K2SO4	 Delta_V  18.39 cm3/mol
	Bischofite       -5.42*    -1.15    4.27  MgCl2:6H2O	 Delta_V  -3.16 cm3/mol
	Bloedite         -7.67*   -10.02   -2.35  Na2Mg(SO4)2:4H2O	 Delta_V -28.41 cm3/mol
	Brucite          -3.31*   -13.49  -10.18  Mg(OH)2	 Delta_V -29.18 cm3/mol
	Burkeite        -11.87*   -12.64   -0.77  Na6CO3(SO4)2	 Delta_V -18.14 cm3/mol
	Calcite           2.22*    -7.02   -9.24  CaCO3	 Delta_V  10.25 cm3/mol
	Carnallite       -5.98*    -1.65    4.33  KMgCl3:6H2O	 Delta_V  18.79 cm3/mol
	Celestite         0.32*    -6.78   -7.10  SrSO4	 Delta_V -22.88 cm3/mol
	CO2(g)           -0.34**   -2.31   -1.97  CO2	 Delta_V -46.37 cm3/mol	 Pressure   0.5 atm, phi 0.990.
	Dolomite          3.72*   -14.72  -18.44  CaMg(CO3)2	 Delta_V -87.31 cm3/mol
	Epsomite         -5.38*    -6.55   -1.17  MgSO4:7H2O	 Delta_V -28.66 cm3/mol
	Gaylussite       -3.24*   -12.66   -9.42  CaNa2(CO3)2:5H2O	 Delta_V -58.39 cm3/mol
	Glaserite        -7.52*   -11.32   -3.80  NaK3(SO4)2	 Delta_V  27.70 cm3/mol
	Glauberite       -3.82*    -9.06   -5.24  Na2Ca(SO4)2	 Delta_V -20.61 cm3/mol
	Gypsum           -0.62*    -5.52   -4.91  CaSO4:2H2O	 Delta_V -20.86 cm3/mol
	H2O(g)           -0.06**   -0.07   -0.01  H2O	 Pressure   0.9 atm, phi 0.974.
	H2Sg(g)          -2.45**  -10.39   -7.94  H2Sg	 Delta_V -30.00 cm3/mol	 Pressure   0.0 atm, phi 0.985.
	Halite           -0.73*     0.83    1.56  NaCl	 Delta_V  12.88 cm3/mol
	Hexahydrite      -5.75*    -6.48   -0.73  MgSO4:6H2O	 Delta_V -28.66 cm3/mol
	Kainite          -6.58*    -6.78   -0.19  KMgClSO4:3H2O	 Delta_V  -6.72 cm3/mol
	Kalicinite       -3.39*   -13.45  -10.06  KHCO3	 Delta_V  -9.44 cm3/mol
	Kieserite        -6.02*    -6.14   -0.12  MgSO4:H2O	 Delta_V -28.66 cm3/mol
	Labile_S         -7.20*   -12.87   -5.67  Na4Ca(SO4)3:2H2O	 Delta_V -20.36 cm3/mol
	Leonhardite      -5.46*    -6.35   -0.89  MgSO4:4H2O	 Delta_V -28.66 cm3/mol
	Leonite          -8.69*   -12.67   -3.98  K2Mg(SO4)2:4H2O	 Delta_V -10.27 cm3/mol
	Magnesite         0.34*    -7.70   -8.04  MgCO3	 Delta_V -47.55 cm3/mol
	Mirabilite       -3.89*    -4.35   -0.46  Na2SO4:10H2O	 Delta_V   0.25 cm3/mol
	Misenite        -66.44*   -77.25  -10.81  K8H6(SO4)7	 Delta_V  75.10 cm3/mol
	Mth(g)            0.30**   -2.76   -3.06  Mth	 Delta_V -33.00 cm3/mol	 Pressure   2.0 atm, phi 0.997.
	Nahcolite        -1.38*   -12.12  -10.74  NaHCO3	 Delta_V -18.50 cm3/mol
	Natron           -5.16*    -5.98   -0.82  Na2CO3:10H2O	 Delta_V -18.64 cm3/mol
	Nesquehonite     -2.74*    -7.91   -5.17  MgCO3:3H2O	 Delta_V -47.55 cm3/mol
	Ng(g)            -0.74**   -4.08   -3.34  Ng	 Delta_V -30.00 cm3/mol	 Pressure   0.2 atm, phi 1.004.
	Pentahydrite     -5.13*    -6.41   -1.28  MgSO4:5H2O	 Delta_V -28.66 cm3/mol
	Pirssonite       -3.22*   -12.46   -9.23  Na2Ca(CO3)2:2H2O	 Delta_V -58.39 cm3/mol
	Polyhalite       -9.57*   -23.31  -13.74  K2MgCa2(SO4)4:2H2O	 Delta_V -52.00 cm3/mol
	Portlandite      -7.61*   -12.80   -5.19  Ca(OH)2	 Delta_V -21.38 cm3/mol
	Schoenite        -8.48*   -12.81   -4.33  K2Mg(SO4)2:6H2O	 Delta_V -10.27 cm3/mol
	Strontianite      1.47*    -8.41   -9.88  SrCO3	 Delta_V -41.77 cm3/mol
	Sylvite          -2.00*    -0.50    1.51  KCl	 Delta_V  21.94 cm3/mol
	Syngenite        -4.33*   -11.78   -7.45  K2Ca(SO4)2:H2O	 Delta_V  -2.48 cm3/mol
	Trona            -6.18*   -17.56  -11.38  Na3H(CO3)2:2H2O	 Delta_V -37.14 cm3/mol
	                      *  with Delta_V * (P - 1) / 2.3RT.
	                      ** SI from Peng-Robinson fugacity - Delta_V * (P - 1) / 2.3RT.

Reaction step 5.

Using solution 1.	Solution after simulation 2.
Using gas phase 1.	Gas phase after simulation 2.
Using temperature 1.	
Using reaction 1.	

Reaction 1.	Irreversible reaction defined in simulation 3.

	 -1.000e+00 moles of the following reaction have been added:

	                 Relative
	Reactant            moles

	CO2(g)               0.32820
	H2Sg(g)              0.00492
	Mth(g)               9.55200
	Ng(g)                1.14600

	                 Relative
	Element             moles
	C                    0.32820
	H                    0.00984
	Mth                  9.55200
	Ng                   1.14600
	O                    0.65640
	Sg                   0.00492

-----------------------------------Gas phase-----------------------------------

Total pressure:  3.14      atmospheres          (Peng-Robinson calculation)
    Gas volume:   1.00e+00 liters
  Molar volume:   9.34e+00 liters/mole
   P * Vm / RT:  0.99246  (Compressibility Factor Z) 

                                                        Moles in gas
                                            ----------------------------------
Component         log P           P    phi     Initial       Final       Delta

CO2(g)            -0.36   4.373e-01  0.991   3.062e-01   1.492e-02  -2.913e-01
H2O(g)            -0.24   5.725e-01  0.976   3.186e-01   1.954e-02  -2.991e-01
H2Sg(g)           -2.41   3.930e-03  0.986   2.328e-03   1.341e-04  -2.194e-03
Mth(g)             0.29   1.947e+00  0.997   9.218e+00   6.646e-02  -9.151e+00
Ng(g)             -0.75   1.768e-01  1.003   1.118e+00   6.032e-03  -1.112e+00

-----------------------------Solution composition------------------------------

	Elements           Molality       Moles

	Ba                1.972e-04   1.983e-04
	C                 9.527e-03   9.582e-03
	Ca                4.379e-01   4.404e-01
	Cl                3.960e+00   3.983e+00
	K                 1.854e-01   1.864e-01
	Mg                7.719e-02   7.763e-02
	Mth               1.675e-03   1.684e-03
	Na                2.942e+00   2.958e+00
	Ng                8.053e-05   8.099e-05
	S                 1.281e-03   1.289e-03
	Sg                7.005e-04   7.045e-04
	Sr                1.471e-02   1.479e-02

----------------------------Description of solution----------------------------

                                       pH  =   6.343      Charge balance
                                       pe  =   4.000      Adjusted to redox equilibrium
       Specific Conductance (uS/cm, 86 oC) = 756142
                          Density (g/cm3)  =   1.08991
                        Activity of water  =   0.854
                           Ionic strength  =   4.608e+00
                       Mass of water (kg)  =   1.006e+00
                 Total alkalinity (eq/kg)  =   8.756e-03
                       Total CO2 (mol/kg)  =   9.527e-03
                      Temperature (deg C)  =  86.67
                           Pressure (atm)  =  3.14
                  Electrical balance (eq)  =   2.167e-01
 Percent error, 100*(Cat-|An|)/(Cat+|An|)  =   2.64
                               Iterations  =  52
                         Gamma iterations  =   4
                      Osmotic coefficient  =   1.14924
                         Density of water  =   0.96756
                                  Total H  = 1.116530e+02
                                  Total O  = 5.585453e+01

----------------------------Distribution of species----------------------------

                                                           MacInnes   MacInnes
	                               MacInnes    Log       Log         Log 
   Species                 Molality    Activity  Molality  Activity     Gamma

   OH-                    2.768e-06   6.095e-07    -5.558    -6.215    -0.657
   H+                     2.287e-07   4.544e-07    -6.641    -6.343     0.298
   H2O                    5.551e+01   8.539e-01     1.744    -0.069     0.000
Ba               1.972e-04
   Ba+2                   1.972e-04   3.193e-05    -3.705    -4.496    -0.791
C(4)             9.527e-03
   HCO3-                  6.064e-03   4.158e-03    -2.217    -2.381    -0.164
   CO2                    2.401e-03   5.113e-03    -2.620    -2.291     0.328
   CaCO3                  9.309e-04   9.309e-04    -3.031    -3.031     0.000
   CO3-2                  8.255e-05   6.781e-07    -4.083    -6.169    -2.085
   MgCO3                  4.949e-05   4.949e-05    -4.305    -4.305     0.000
Ca               4.379e-01
   Ca+2                   4.370e-01   1.589e-01    -0.360    -0.799    -0.439
   CaCO3                  9.309e-04   9.309e-04    -3.031    -3.031     0.000
Cl               3.960e+00
   Cl-                    3.960e+00   2.605e+00     0.598     0.416    -0.182
K                1.854e-01
   K+                     1.854e-01   1.243e-01    -0.732    -0.905    -0.173
Mg               7.719e-02
   Mg+2                   7.712e-02   3.358e-02    -1.113    -1.474    -0.361
   MgCO3                  4.949e-05   4.949e-05    -4.305    -4.305     0.000
   MgOH+                  1.499e-05   8.456e-06    -4.824    -5.073    -0.249
Mth              1.675e-03
   Mth                    1.675e-03   1.675e-03    -2.776    -2.776     0.000
Na               2.942e+00
   Na+                    2.942e+00   2.755e+00     0.469     0.440    -0.029
Ng               8.053e-05
   Ng                     8.053e-05   8.053e-05    -4.094    -4.094     0.000
S(6)             1.281e-03
   SO4-2                  1.281e-03   2.813e-05    -2.892    -4.551    -1.659
   HSO4-                  1.758e-08   7.877e-09    -7.755    -8.104    -0.349
Sg               7.005e-04
   HSg-                   5.472e-04   9.952e-05    -3.262    -4.002    -0.740
   H2Sg                   1.526e-04   1.526e-04    -3.816    -3.816     0.000
   Sg-2                   7.252e-07   8.760e-10    -6.140    -9.058    -2.918
Sr               1.471e-02
   Sr+2                   1.471e-02   6.036e-03    -1.832    -2.219    -0.387

------------------------------Saturation indices-------------------------------

	Phase               SI   log IAP   log K(359 K,   3 atm)

	Anhydrite         0.48*    -5.35   -5.83  CaSO4	 Delta_V -14.68 cm3/mol
	Aragonite         1.88*    -6.97   -8.85  CaCO3	 Delta_V -33.22 cm3/mol
	Arcanite         -5.37*    -6.36   -0.99  K2SO4	 Delta_V  24.20 cm3/mol
	Bischofite       -5.35*    -1.05    4.30  MgCl2:6H2O	 Delta_V   2.47 cm3/mol
	Bloedite         -7.62*    -9.97   -2.35  Na2Mg(SO4)2:4H2O	 Delta_V -15.80 cm3/mol
	Brucite          -3.63*   -13.90  -10.27  Mg(OH)2	 Delta_V -26.82 cm3/mol
	Burkeite        -11.86*   -12.63   -0.77  Na6CO3(SO4)2	 Delta_V  -1.31 cm3/mol
	Calcite           2.11*    -6.97   -9.08  CaCO3	 Delta_V  16.78 cm3/mol
	Carnallite       -5.87*    -1.54    4.33  KMgCl3:6H2O	 Delta_V  26.57 cm3/mol
	Celestite         0.23*    -6.77   -7.00  SrSO4	 Delta_V -16.96 cm3/mol
	CO2(g)           -0.36**   -2.29   -1.93  CO2	 Delta_V -41.27 cm3/mol	 Pressure   0.4 atm, phi 0.991.
	Dolomite          3.66*   -14.61  -18.27  CaMg(CO3)2	 Delta_V -73.30 cm3/mol
	Epsomite         -5.24*    -6.51   -1.26  MgSO4:7H2O	 Delta_V -21.54 cm3/mol
	Gaylussite       -3.18*   -12.60   -9.42  CaNa2(CO3)2:5H2O	 Delta_V -46.01 cm3/mol
	Glaserite        -7.57*   -11.38   -3.80  NaK3(SO4)2	 Delta_V  39.16 cm3/mol
	Glauberite       -3.78*    -9.02   -5.24  Na2Ca(SO4)2	 Delta_V  -8.94 cm3/mol
	Gypsum           -0.66*    -5.49   -4.82  CaSO4:2H2O	 Delta_V -14.68 cm3/mol
	H2O(g)           -0.25**   -0.07    0.18  H2O	 Pressure   0.6 atm, phi 0.976.
	H2Sg(g)          -2.41**  -10.34   -7.93  H2Sg	 Delta_V -30.00 cm3/mol	 Pressure   0.0 atm, phi 0.986.
	Halite           -0.72*     0.86    1.58  NaCl	 Delta_V  14.88 cm3/mol
	Hexahydrite      -5.56*    -6.44   -0.87  MgSO4:6H2O	 Delta_V -21.54 cm3/mol
	Kainite          -6.53*    -6.72   -0.19  KMgClSO4:3H2O	 Delta_V   2.56 cm3/mol
	Kalicinite       -3.36*   -13.42  -10.06  KHCO3	 Delta_V  -3.80 cm3/mol
	Kieserite        -5.97*    -6.09   -0.12  MgSO4:H2O	 Delta_V -21.54 cm3/mol
	Labile_S         -7.16*   -12.83   -5.67  Na4Ca(SO4)3:2H2O	 Delta_V  -3.20 cm3/mol
	Leonhardite      -5.41*    -6.30   -0.89  MgSO4:4H2O	 Delta_V -21.54 cm3/mol
	Leonite          -8.68*   -12.66   -3.98  K2Mg(SO4)2:4H2O	 Delta_V   2.65 cm3/mol
	Magnesite         0.38*    -7.64   -8.02  MgCO3	 Delta_V -40.08 cm3/mol
	Mirabilite       -4.18*    -4.36   -0.18  Na2SO4:10H2O	 Delta_V   5.74 cm3/mol
	Misenite        -66.35*   -77.16  -10.81  K8H6(SO4)7	 Delta_V 112.60 cm3/mol
	Mth(g)            0.29**   -2.78   -3.06  Mth	 Delta_V -33.00 cm3/mol	 Pressure   1.9 atm, phi 0.997.
	Nahcolite        -1.33*   -12.07  -10.74  NaHCO3	 Delta_V -13.03 cm3/mol
	Natron           -5.15*    -5.97   -0.82  Na2CO3:10H2O	 Delta_V -12.79 cm3/mol
	Nesquehonite     -2.68*    -7.85   -5.17  MgCO3:3H2O	 Delta_V -40.08 cm3/mol
	Ng(g)            -0.75**   -4.09   -3.34  Ng	 Delta_V -30.00 cm3/mol	 Pressure   0.2 atm, phi 1.003.
	Pentahydrite     -5.08*    -6.37   -1.28  MgSO4:5H2O	 Delta_V -21.54 cm3/mol
	Pirssonite       -3.16*   -12.39   -9.23  Na2Ca(CO3)2:2H2O	 Delta_V -46.01 cm3/mol
	Polyhalite       -9.48*   -23.22  -13.74  K2MgCa2(SO4)4:2H2O	 Delta_V -26.72 cm3/mol
	Portlandite      -8.04*   -13.23   -5.19  Ca(OH)2	 Delta_V -19.95 cm3/mol
	Schoenite        -8.47*   -12.80   -4.33  K2Mg(SO4)2:6H2O	 Delta_V   2.65 cm3/mol
	Strontianite      1.34*    -8.39   -9.73  SrCO3	 Delta_V -35.50 cm3/mol
	Sylvite          -1.92*    -0.49    1.43  KCl	 Delta_V  24.10 cm3/mol
	Syngenite        -4.33*   -11.78   -7.45  K2Ca(SO4)2:H2O	 Delta_V   9.51 cm3/mol
	Trona            -6.11*   -17.50  -11.38  Na3H(CO3)2:2H2O	 Delta_V -25.82 cm3/mol
	                      *  with Delta_V * (P - 1) / 2.3RT.
	                      ** SI from Peng-Robinson fugacity - Delta_V * (P - 1) / 2.3RT.

Reaction step 6.

Using solution 1.	Solution after simulation 2.
Using gas phase 1.	Gas phase after simulation 2.
Using temperature 1.	
Using reaction 1.	

Reaction 1.	Irreversible reaction defined in simulation 3.

	 -1.000e+00 moles of the following reaction have been added:

	                 Relative
	Reactant            moles

	CO2(g)               0.32820
	H2Sg(g)              0.00492
	Mth(g)               9.55200
	Ng(g)                1.14600

	                 Relative
	Element             moles
	C                    0.32820
	H                    0.00984
	Mth                  9.55200
	Ng                   1.14600
	O                    0.65640
	Sg                   0.00492

-----------------------------------Gas phase-----------------------------------

Total pressure:  2.83      atmospheres          (Peng-Robinson calculation)
    Gas volume:   1.00e+00 liters
  Molar volume:   1.00e+01 liters/mole
   P * Vm / RT:  0.99359  (Compressibility Factor Z) 

                                                        Moles in gas
                                            ----------------------------------
Component         log P           P    phi     Initial       Final       Delta

CO2(g)            -0.39   4.117e-01  0.991   3.062e-01   1.449e-02  -2.917e-01
H2O(g)            -0.45   3.538e-01  0.978   3.186e-01   1.245e-02  -3.061e-01
H2Sg(g)           -2.37   4.241e-03  0.987   2.328e-03   1.493e-04  -2.179e-03
Mth(g)             0.28   1.889e+00  0.997   9.218e+00   6.647e-02  -9.151e+00
Ng(g)             -0.77   1.714e-01  1.002   1.118e+00   6.033e-03  -1.112e+00

-----------------------------Solution composition------------------------------

	Elements           Molality       Moles

	Ba                1.972e-04   1.983e-04
	C                 9.956e-03   1.001e-02
	Ca                4.379e-01   4.404e-01
	Cl                3.960e+00   3.983e+00
	K                 1.853e-01   1.864e-01
	Mg                7.718e-02   7.763e-02
	Mth               1.662e-03   1.672e-03
	Na                2.941e+00   2.958e+00
	Ng                7.903e-05   7.949e-05
	S                 1.281e-03   1.289e-03
	Sg                6.853e-04   6.893e-04
	Sr                1.471e-02   1.479e-02

----------------------------Description of solution----------------------------

                                       pH  =   6.275      Charge balance
                                       pe  =   4.000      Adjusted to redox equilibrium
       Specific Conductance (uS/cm, 75 oC) = 708134
                          Density (g/cm3)  =   1.10299
                        Activity of water  =   0.853
                           Ionic strength  =   4.608e+00
                       Mass of water (kg)  =   1.006e+00
                 Total alkalinity (eq/kg)  =   8.754e-03
                       Total CO2 (mol/kg)  =   9.956e-03
                      Temperature (deg C)  =  75.33
                           Pressure (atm)  =  2.83
                  Electrical balance (eq)  =   2.167e-01
 Percent error, 100*(Cat-|An|)/(Cat+|An|)  =   2.64
                               Iterations  =  53
                         Gamma iterations  =   4
                      Osmotic coefficient  =   1.15869
                         Density of water  =   0.97467
                                  Total H  = 1.116672e+02
                                  Total O  = 5.586248e+01

----------------------------Distribution of species----------------------------

                                                           MacInnes   MacInnes
	                               MacInnes    Log       Log         Log 
   Species                 Molality    Activity  Molality  Activity     Gamma

   OH-                    1.478e-06   3.181e-07    -5.830    -6.497    -0.667
   H+                     2.427e-07   5.312e-07    -6.615    -6.275     0.340
   H2O                    5.551e+01   8.528e-01     1.744    -0.069     0.000
Ba               1.972e-04
   Ba+2                   1.972e-04   3.809e-05    -3.705    -4.419    -0.714
C(4)             9.956e-03
   HCO3-                  6.561e-03   4.156e-03    -2.183    -2.381    -0.198
   CO2                    2.557e-03   5.446e-03    -2.592    -2.264     0.328
   CaCO3                  7.159e-04   7.159e-04    -3.145    -3.145     0.000
   CO3-2                  7.550e-05   5.868e-07    -4.122    -6.231    -2.109
   MgCO3                  4.595e-05   4.595e-05    -4.338    -4.338     0.000
Ca               4.379e-01
   Ca+2                   4.372e-01   1.989e-01    -0.359    -0.701    -0.342
   CaCO3                  7.159e-04   7.159e-04    -3.145    -3.145     0.000
Cl               3.960e+00
   Cl-                    3.960e+00   2.563e+00     0.598     0.409    -0.189
K                1.853e-01
   K+                     1.853e-01   1.280e-01    -0.732    -0.893    -0.161
Mg               7.718e-02
   Mg+2                   7.712e-02   4.309e-02    -1.113    -1.366    -0.253
   MgCO3                  4.595e-05   4.595e-05    -4.338    -4.338     0.000
   MgOH+                  7.515e-06   4.599e-06    -5.124    -5.337    -0.213
Mth              1.662e-03
   Mth                    1.662e-03   1.662e-03    -2.779    -2.779     0.000
Na               2.941e+00
   Na+                    2.941e+00   2.946e+00     0.469     0.469     0.001
Ng               7.903e-05
   Ng                     7.903e-05   7.903e-05    -4.102    -4.102     0.000
S(6)             1.281e-03
   SO4-2                  1.281e-03   2.408e-05    -2.892    -4.618    -1.726
   HSO4-                  1.225e-08   5.488e-09    -7.912    -8.261    -0.349
Sg               6.853e-04
   HSg-                   5.090e-04   9.250e-05    -3.293    -4.034    -0.741
   H2Sg                   1.760e-04   1.760e-04    -3.754    -3.754     0.000
   Sg-2                   3.050e-07   4.017e-10    -6.516    -9.396    -2.880
Sr               1.471e-02
   Sr+2                   1.471e-02   7.035e-03    -1.832    -2.153    -0.320

------------------------------Saturation indices-------------------------------

	Phase               SI   log IAP   log K(348 K,   3 atm)

	Anhydrite         0.12*    -5.32   -5.44  CaSO4	 Delta_V  -9.80 cm3/mol
	Aragonite         1.77*    -6.93   -8.70  CaCO3	 Delta_V -28.05 cm3/mol
	Arcanite         -5.29*    -6.40   -1.11  K2SO4	 Delta_V  28.65 cm3/mol
	Bischofite       -5.28*    -0.96    4.32  MgCl2:6H2O	 Delta_V   7.03 cm3/mol
	Bloedite         -7.59*    -9.94   -2.35  Na2Mg(SO4)2:4H2O	 Delta_V  -5.96 cm3/mol
	Brucite          -3.99*   -14.36  -10.37  Mg(OH)2	 Delta_V -24.86 cm3/mol
	Burkeite        -11.88*   -12.65   -0.77  Na6CO3(SO4)2	 Delta_V  11.33 cm3/mol
	Calcite           2.00*    -6.93   -8.93  CaCO3	 Delta_V  21.95 cm3/mol
	Carnallite       -5.78*    -1.45    4.33  KMgCl3:6H2O	 Delta_V  32.78 cm3/mol
	Celestite         0.13*    -6.77   -6.91  SrSO4	 Delta_V -12.18 cm3/mol
	CO2(g)           -0.39**   -2.26   -1.87  CO2	 Delta_V -37.20 cm3/mol	 Pressure   0.4 atm, phi 0.991.
	Dolomite          3.55*   -14.53  -18.08  CaMg(CO3)2	 Delta_V -62.12 cm3/mol
	Epsomite         -5.11*    -6.47   -1.36  MgSO4:7H2O	 Delta_V -15.82 cm3/mol
	Gaylussite       -3.15*   -12.57   -9.42  CaNa2(CO3)2:5H2O	 Delta_V -36.44 cm3/mol
	Glaserite        -7.64*   -11.45   -3.80  NaK3(SO4)2	 Delta_V  47.90 cm3/mol
	Glauberite       -3.75*    -9.00   -5.25  Na2Ca(SO4)2	 Delta_V   0.06 cm3/mol
	Gypsum           -0.71*    -5.46   -4.75  CaSO4:2H2O	 Delta_V  -9.80 cm3/mol
	H2O(g)           -0.46**   -0.07    0.39  H2O	 Pressure   0.4 atm, phi 0.978.
	H2Sg(g)          -2.38**  -10.31   -7.93  H2Sg	 Delta_V -30.00 cm3/mol	 Pressure   0.0 atm, phi 0.987.
	Halite           -0.71*     0.88    1.59  NaCl	 Delta_V  16.35 cm3/mol
	Hexahydrite      -5.38*    -6.40   -1.02  MgSO4:6H2O	 Delta_V -15.82 cm3/mol
	Kainite          -6.48*    -6.68   -0.19  KMgClSO4:3H2O	 Delta_V   9.93 cm3/mol
	Kalicinite       -3.34*   -13.40  -10.06  KHCO3	 Delta_V   0.60 cm3/mol
	Kieserite        -5.93*    -6.05   -0.12  MgSO4:H2O	 Delta_V -15.82 cm3/mol
	Labile_S         -7.15*   -12.82   -5.67  Na4Ca(SO4)3:2H2O	 Delta_V   9.92 cm3/mol
	Leonhardite      -5.37*    -6.26   -0.89  MgSO4:4H2O	 Delta_V -15.82 cm3/mol
	Leonite          -8.69*   -12.66   -3.98  K2Mg(SO4)2:4H2O	 Delta_V  12.83 cm3/mol
	Magnesite         0.39*    -7.60   -7.99  MgCO3	 Delta_V -34.06 cm3/mol
	Mirabilite       -4.32*    -4.37   -0.05  Na2SO4:10H2O	 Delta_V   9.86 cm3/mol
	Misenite        -66.31*   -77.12  -10.81  K8H6(SO4)7	 Delta_V 141.73 cm3/mol
	Mth(g)            0.27**   -2.78   -3.05  Mth	 Delta_V -33.00 cm3/mol	 Pressure   1.9 atm, phi 0.997.
	Nahcolite        -1.30*   -12.04  -10.74  NaHCO3	 Delta_V  -8.80 cm3/mol
	Natron           -5.16*    -5.98   -0.82  Na2CO3:10H2O	 Delta_V  -8.39 cm3/mol
	Nesquehonite     -2.64*    -7.80   -5.17  MgCO3:3H2O	 Delta_V -34.06 cm3/mol
	Ng(g)            -0.77**   -4.10   -3.34  Ng	 Delta_V -30.00 cm3/mol	 Pressure   0.2 atm, phi 1.002.
	Pentahydrite     -5.05*    -6.33   -1.28  MgSO4:5H2O	 Delta_V -15.82 cm3/mol
	Pirssonite       -3.13*   -12.36   -9.23  Na2Ca(CO3)2:2H2O	 Delta_V -36.44 cm3/mol
	Polyhalite       -9.42*   -23.17  -13.74  K2MgCa2(SO4)4:2H2O	 Delta_V  -6.78 cm3/mol
	Portlandite      -8.51*   -13.70   -5.19  Ca(OH)2	 Delta_V -18.85 cm3/mol
[...]
	                      *  with Delta_V * (P - 1) / 2.3RT.
	                      ** SI from Peng-Robinson fugacity - Delta_V * (P - 1) / 2.3RT.

Reaction step 9.

Using solution 1.	Solution after simulation 2.
Using gas phase 1.	Gas phase after simulation 2.
Using temperature 1.	
Using reaction 1.	

Reaction 1.	Irreversible reaction defined in simulation 3.

	 -1.000e+00 moles of the following reaction have been added:

	                 Relative
	Reactant            moles

	CO2(g)               0.32820
	H2Sg(g)              0.00492
	Mth(g)               9.55200
	Ng(g)                1.14600

	                 Relative
	Element             moles
	C                    0.32820
	H                    0.00984
	Mth                  9.55200
	Ng                   1.14600
	O                    0.65640
	Sg                   0.00492

-----------------------------------Gas phase-----------------------------------

Total pressure:  2.26      atmospheres          (Peng-Robinson calculation)
    Gas volume:   1.00e+00 liters
  Molar volume:   1.14e+01 liters/mole
   P * Vm / RT:  0.99472  (Compressibility Factor Z) 

                                                        Moles in gas
                                            ----------------------------------
Component         log P           P    phi     Initial       Final       Delta

CO2(g)            -0.48   3.285e-01  0.990   3.062e-01   1.280e-02  -2.934e-01
H2O(g)            -1.17   6.825e-02  0.978   3.186e-01   2.659e-03  -3.159e-01
H2Sg(g)           -2.32   4.810e-03  0.987   2.328e-03   1.874e-04  -2.141e-03
Mth(g)             0.23   1.700e+00  0.996   9.218e+00   6.622e-02  -9.152e+00
Ng(g)             -0.81   1.547e-01  1.001   1.118e+00   6.026e-03  -1.112e+00

-----------------------------Solution composition------------------------------

	Elements           Molality       Moles

	Ba                1.971e-04   1.983e-04
	C                 1.164e-02   1.171e-02
	Ca                4.378e-01   4.404e-01
	Cl                3.959e+00   3.983e+00
	K                 1.853e-01   1.864e-01
	Mg                7.717e-02   7.763e-02
	Mth               1.912e-03   1.923e-03
	Na                2.941e+00   2.958e+00
	Ng                8.573e-05   8.625e-05
	S                 1.281e-03   1.289e-03
	Sg                6.473e-04   6.512e-04
	Sr                1.471e-02   1.479e-02

----------------------------Description of solution----------------------------

                                       pH  =   6.085      Charge balance
                                       pe  =   4.000      Adjusted to redox equilibrium
       Specific Conductance (uS/cm, 41 oC) = 431270
                          Density (g/cm3)  =   1.13792
                        Activity of water  =   0.851
                           Ionic strength  =   4.609e+00
                       Mass of water (kg)  =   1.006e+00
                 Total alkalinity (eq/kg)  =   8.753e-03
                       Total CO2 (mol/kg)  =   1.164e-02
                      Temperature (deg C)  =  41.33
                           Pressure (atm)  =  2.26
                  Electrical balance (eq)  =   2.167e-01
 Percent error, 100*(Cat-|An|)/(Cat+|An|)  =   2.64
                               Iterations  =  53
                         Gamma iterations  =   4
                      Osmotic coefficient  =   1.17396
                         Density of water  =   0.99169
                                  Total H  = 1.116867e+02
                                  Total O  = 5.587566e+01

----------------------------Distribution of species----------------------------

                                                           MacInnes   MacInnes
	                               MacInnes    Log       Log         Log 
   Species                 Molality    Activity  Molality  Activity     Gamma

   H+                     2.902e-07   8.214e-07    -6.537    -6.085     0.452
   OH-                    1.591e-07   3.233e-08    -6.798    -7.490    -0.692
   H2O                    5.551e+01   8.510e-01     1.744    -0.070     0.000
Ba               1.971e-04
   Ba+2                   1.971e-04   5.869e-05    -3.705    -4.231    -0.526
C(4)             1.164e-02
   HCO3-                  7.823e-03   3.946e-03    -2.107    -2.404    -0.297
   CO2                    3.525e-03   7.509e-03    -2.453    -2.124     0.328
   CaCO3                  2.201e-04   2.201e-04    -3.657    -3.657     0.000
   CO3-2                  4.521e-05   2.933e-07    -4.345    -6.533    -2.188
   MgCO3                  2.607e-05   2.607e-05    -4.584    -4.584     0.000
Ca               4.378e-01
   Ca+2                   4.376e-01   3.537e-01    -0.359    -0.451    -0.092
   CaCO3                  2.201e-04   2.201e-04    -3.657    -3.657     0.000
Cl               3.959e+00
   Cl-                    3.959e+00   2.406e+00     0.598     0.381    -0.216
K                1.853e-01
   K+                     1.853e-01   1.352e-01    -0.732    -0.869    -0.137
Mg               7.717e-02
   Mg+2                   7.714e-02   8.260e-02    -1.113    -1.083     0.030
   MgCO3                  2.607e-05   2.607e-05    -4.584    -4.584     0.000
   MgOH+                  6.776e-07   5.128e-07    -6.169    -6.290    -0.121
Mth              1.912e-03
   Mth                    1.912e-03   1.912e-03    -2.719    -2.719     0.000
Na               2.941e+00
   Na+                    2.941e+00   3.374e+00     0.468     0.528     0.060
Ng               8.573e-05
   Ng                     8.573e-05   8.573e-05    -4.067    -4.067     0.000
S(6)             1.281e-03
   SO4-2                  1.281e-03   1.490e-05    -2.892    -4.827    -1.934
   HSO4-                  4.119e-09   1.860e-09    -8.385    -8.731    -0.345
Sg               6.473e-04
   HSg-                   3.469e-04   6.353e-05    -3.460    -4.197    -0.737
   H2Sg                   3.004e-04   3.004e-04    -3.522    -3.522     0.000
   Sg-2                   1.605e-08   2.698e-11    -7.795   -10.569    -2.774
Sr               1.471e-02
   Sr+2                   1.471e-02   1.011e-02    -1.833    -1.995    -0.163

------------------------------Saturation indices-------------------------------

	Phase               SI   log IAP   log K(314 K,   2 atm)

	Anhydrite        -0.71*    -5.28   -4.57  CaSO4	 Delta_V  -2.97 cm3/mol
	Aragonite         1.36*    -6.98   -8.34  CaCO3	 Delta_V -20.75 cm3/mol
	Arcanite         -5.03*    -6.57   -1.54  K2SO4	 Delta_V  33.87 cm3/mol
	Bischofite       -5.15*    -0.74    4.41  MgCl2:6H2O	 Delta_V  14.36 cm3/mol
	Bloedite         -7.61*    -9.96   -2.35  Na2Mg(SO4)2:4H2O	 Delta_V   7.00 cm3/mol
	Brucite          -5.37*   -16.06  -10.69  Mg(OH)2	 Delta_V -21.47 cm3/mol
	Burkeite        -12.24*   -13.02   -0.77  Na6CO3(SO4)2	 Delta_V  24.15 cm3/mol
	Calcite           1.61*    -6.98   -8.59  CaCO3	 Delta_V  29.25 cm3/mol
	Carnallite       -5.56*    -1.23    4.33  KMgCl3:6H2O	 Delta_V  41.97 cm3/mol
	Celestite        -0.13*    -6.82   -6.69  SrSO4	 Delta_V  -4.63 cm3/mol
	CO2(g)           -0.49**   -2.12   -1.64  CO2	 Delta_V -31.28 cm3/mol	 Pressure   0.3 atm, phi 0.990.
	Dolomite          2.84*   -14.60  -17.44  CaMg(CO3)2	 Delta_V -45.49 cm3/mol
	Epsomite         -4.71*    -6.40   -1.69  MgSO4:7H2O	 Delta_V  -6.97 cm3/mol
	Gaylussite       -3.39*   -12.81   -9.42  CaNa2(CO3)2:5H2O	 Delta_V -24.55 cm3/mol
	Glaserite        -7.93*   -11.73   -3.80  NaK3(SO4)2	 Delta_V  57.80 cm3/mol
	Glauberite       -3.80*    -9.05   -5.25  Na2Ca(SO4)2	 Delta_V  11.01 cm3/mol
	Gypsum           -0.82*    -5.42   -4.60  CaSO4:2H2O	 Delta_V  -2.97 cm3/mol
	H2O(g)           -1.18**   -0.07    1.11  H2O	 Pressure   0.1 atm, phi 0.978.
	H2Sg(g)          -2.32**  -10.28   -7.96  H2Sg	 Delta_V -30.00 cm3/mol	 Pressure   0.0 atm, phi 0.987.
	Halite           -0.68*     0.91    1.59  NaCl	 Delta_V  17.66 cm3/mol
	Hexahydrite      -4.89*    -6.33   -1.44  MgSO4:6H2O	 Delta_V  -6.97 cm3/mol
	Kainite          -6.41*    -6.61   -0.19  KMgClSO4:3H2O	 Delta_V  20.63 cm3/mol
	Kalicinite       -3.43*   -13.49  -10.06  KHCO3	 Delta_V   6.41 cm3/mol
	Kieserite        -5.86*    -5.98   -0.12  MgSO4:H2O	 Delta_V  -6.97 cm3/mol
	Labile_S         -7.29*   -12.96   -5.67  Na4Ca(SO4)3:2H2O	 Delta_V  24.98 cm3/mol
	Leonhardite      -5.30*    -6.19   -0.89  MgSO4:4H2O	 Delta_V  -6.97 cm3/mol
	Leonite          -8.78*   -12.76   -3.98  K2Mg(SO4)2:4H2O	 Delta_V  26.90 cm3/mol
	Magnesite         0.27*    -7.62   -7.89  MgCO3	 Delta_V -24.75 cm3/mol
	Mirabilite       -3.90*    -4.47   -0.57  Na2SO4:10H2O	 Delta_V  13.98 cm3/mol
	Misenite        -66.44*   -77.25  -10.81  K8H6(SO4)7	 Delta_V 178.97 cm3/mol
	Mth(g)            0.23**   -2.72   -2.95  Mth	 Delta_V -33.00 cm3/mol	 Pressure   1.7 atm, phi 0.996.
	Nahcolite        -1.35*   -12.09  -10.74  NaHCO3	 Delta_V  -3.54 cm3/mol
	Natron           -5.35*    -6.18   -0.82  Na2CO3:10H2O	 Delta_V  -3.80 cm3/mol
	Nesquehonite     -2.66*    -7.83   -5.17  MgCO3:3H2O	 Delta_V -24.75 cm3/mol
	Ng(g)            -0.81**   -4.07   -3.26  Ng	 Delta_V -30.00 cm3/mol	 Pressure   0.2 atm, phi 1.001.
	Pentahydrite     -4.98*    -6.26   -1.28  MgSO4:5H2O	 Delta_V  -6.97 cm3/mol
	Pirssonite       -3.37*   -12.60   -9.23  Na2Ca(CO3)2:2H2O	 Delta_V -24.55 cm3/mol
	Polyhalite       -9.43*   -23.17  -13.74  K2MgCa2(SO4)4:2H2O	 Delta_V  20.96 cm3/mol
	Portlandite     -10.24*   -15.43   -5.19  Ca(OH)2	 Delta_V -17.46 cm3/mol
	Schoenite        -8.57*   -12.90   -4.33  K2Mg(SO4)2:6H2O	 Delta_V  26.90 cm3/mol
	Strontianite      0.79*    -8.53   -9.32  SrCO3	 Delta_V -22.41 cm3/mol
	Sylvite          -1.55*    -0.49    1.06  KCl	 Delta_V  27.60 cm3/mol
	Syngenite        -4.46*   -11.91   -7.45  K2Ca(SO4)2:H2O	 Delta_V  30.90 cm3/mol
	Trona            -6.32*   -17.71  -11.38  Na3H(CO3)2:2H2O	 Delta_V  -7.34 cm3/mol
	                      *  with Delta_V * (P - 1) / 2.3RT.
	                      ** SI from Peng-Robinson fugacity - Delta_V * (P - 1) / 2.3RT.

Reaction step 10.

Using solution 1.	Solution after simulation 2.
Using gas phase 1.	Gas phase after simulation 2.
Using temperature 1.	
Using reaction 1.	

Reaction 1.	Irreversible reaction defined in simulation 3.

	 -1.000e+00 moles of the following reaction have been added:

	                 Relative
	Reactant            moles

	CO2(g)               0.32820
	H2Sg(g)              0.00492
	Mth(g)               9.55200
	Ng(g)                1.14600

	                 Relative
	Element             moles
	C                    0.32820
	H                    0.00984
	Mth                  9.55200
	Ng                   1.14600
	O                    0.65640
	Sg                   0.00492

-----------------------------------Gas phase-----------------------------------

Total pressure:  2.12      atmospheres          (Peng-Robinson calculation)
    Gas volume:   1.00e+00 liters
  Molar volume:   1.17e+01 liters/mole
   P * Vm / RT:  0.99469  (Compressibility Factor Z) 

                                                        Moles in gas
                                            ----------------------------------
Component         log P           P    phi     Initial       Final       Delta

CO2(g)            -0.53   2.973e-01  0.990   3.062e-01   1.202e-02  -2.942e-01
H2O(g)            -1.44   3.639e-02  0.978   3.186e-01   1.471e-03  -3.171e-01
H2Sg(g)           -2.33   4.665e-03  0.986   2.328e-03   1.885e-04  -2.140e-03
Mth(g)             0.21   1.633e+00  0.996   9.218e+00   6.598e-02  -9.152e+00
Ng(g)             -0.83   1.489e-01  1.000   1.118e+00   6.019e-03  -1.112e+00

-----------------------------Solution composition------------------------------

	Elements           Molality       Moles

	Ba                1.971e-04   1.983e-04
	C                 1.241e-02   1.249e-02
	Ca                4.378e-01   4.404e-01
	Cl                3.959e+00   3.983e+00
	K                 1.853e-01   1.864e-01
	Mg                7.716e-02   7.763e-02
	Mth               2.148e-03   2.161e-03
	Na                2.941e+00   2.958e+00
	Ng                9.323e-05   9.379e-05
	S                 1.281e-03   1.289e-03
	Sg                6.462e-04   6.501e-04
	Sr                1.471e-02   1.479e-02

----------------------------Description of solution----------------------------

                                       pH  =   6.034      Charge balance
                                       pe  =   4.000      Adjusted to redox equilibrium
       Specific Conductance (uS/cm, 30 oC) = 346642
                          Density (g/cm3)  =   1.14551
                        Activity of water  =   0.851
                           Ionic strength  =   4.609e+00
                       Mass of water (kg)  =   1.006e+00
                 Total alkalinity (eq/kg)  =   8.753e-03
                       Total CO2 (mol/kg)  =   1.241e-02
                      Temperature (deg C)  =  30.00
                           Pressure (atm)  =  2.12
                  Electrical balance (eq)  =   2.167e-01
 Percent error, 100*(Cat-|An|)/(Cat+|An|)  =   2.64
                               Iterations  =  59
                         Gamma iterations  =   4
                      Osmotic coefficient  =   1.17330
                         Density of water  =   0.99565
                                  Total H  = 1.116890e+02
                                  Total O  = 5.587841e+01

----------------------------Distribution of species----------------------------

                                                           MacInnes   MacInnes
	                               MacInnes    Log       Log         Log 
   Species                 Molality    Activity  Molality  Activity     Gamma

   H+                     3.039e-07   9.246e-07    -6.517    -6.034     0.483
   OH-                    6.637e-08   1.332e-08    -7.178    -7.876    -0.697
   H2O                    5.551e+01   8.510e-01     1.744    -0.070     0.000
Ba               1.971e-04
   Ba+2                   1.971e-04   6.530e-05    -3.705    -4.185    -0.480
C(4)             1.241e-02
   HCO3-                  8.087e-03   3.808e-03    -2.092    -2.419    -0.327
   CO2                    4.135e-03   8.808e-03    -2.384    -2.055     0.328
   CaCO3                  1.382e-04   1.382e-04    -3.859    -3.859     0.000
   CO3-2                  3.466e-05   2.123e-07    -4.460    -6.673    -2.213
   MgCO3                  1.909e-05   1.909e-05    -4.719    -4.719     0.000
Ca               4.378e-01
   Ca+2                   4.377e-01   4.127e-01    -0.359    -0.384    -0.026
   CaCO3                  1.382e-04   1.382e-04    -3.859    -3.859     0.000
Cl               3.959e+00
   Cl-                    3.959e+00   2.345e+00     0.598     0.370    -0.227
K                1.853e-01
   K+                     1.853e-01   1.358e-01    -0.732    -0.867    -0.135
Mg               7.716e-02
   Mg+2                   7.714e-02   9.885e-02    -1.113    -1.005     0.108
   MgCO3                  1.909e-05   1.909e-05    -4.719    -4.719     0.000
   MgOH+                  2.705e-07   2.167e-07    -6.568    -6.664    -0.096
Mth              2.148e-03
   Mth                    2.148e-03   2.148e-03    -2.668    -2.668     0.000
Na               2.941e+00
   Na+                    2.941e+00   3.429e+00     0.468     0.535     0.067
Ng               9.323e-05
   Ng                     9.323e-05   9.323e-05    -4.030    -4.030     0.000
S(6)             1.281e-03
   SO4-2                  1.281e-03   1.273e-05    -2.892    -4.895    -2.003
   HSO4-                  2.830e-09   1.290e-09    -8.548    -8.889    -0.341
Sg               6.462e-04
   H2Sg                   3.647e-04   3.647e-04    -3.438    -3.438     0.000
   HSg-                   2.814e-04   5.205e-05    -3.551    -4.284    -0.733
   Sg-2                   5.208e-09   9.522e-12    -8.283   -11.021    -2.738
Sr               1.471e-02
   Sr+2                   1.471e-02   1.099e-02    -1.833    -1.959    -0.126

------------------------------Saturation indices-------------------------------

	Phase               SI   log IAP   log K(303 K,   2 atm)

	Anhydrite        -0.87*    -5.28   -4.41  CaSO4	 Delta_V  -3.29 cm3/mol
	Aragonite         1.20*    -7.06   -8.25  CaCO3	 Delta_V -21.04 cm3/mol
	Arcanite         -4.93*    -6.63   -1.70  K2SO4	 Delta_V  32.90 cm3/mol
	Bischofite       -5.12*    -0.69    4.44  MgCl2:6H2O	 Delta_V  14.68 cm3/mol
	Bloedite         -7.66*   -10.01   -2.35  Na2Mg(SO4)2:4H2O	 Delta_V   5.80 cm3/mol
	Brucite          -5.94*   -16.76  -10.82  Mg(OH)2	 Delta_V -21.16 cm3/mol
	Burkeite        -12.48*   -13.25   -0.77  Na6CO3(SO4)2	 Delta_V  20.06 cm3/mol
	Calcite           1.45*    -7.06   -8.51  CaCO3	 Delta_V  28.96 cm3/mol
	Carnallite       -5.51*    -1.18    4.33  KMgCl3:6H2O	 Delta_V  41.88 cm3/mol
	Celestite        -0.20*    -6.85   -6.65  SrSO4	 Delta_V  -4.38 cm3/mol
	CO2(g)           -0.53**   -2.06   -1.52  CO2	 Delta_V -31.40 cm3/mol	 Pressure   0.3 atm, phi 0.990.
	Dolomite          2.46*   -14.74  -17.20  CaMg(CO3)2	 Delta_V -45.60 cm3/mol
	Epsomite         -4.57*    -6.39   -1.82  MgSO4:7H2O	 Delta_V  -6.80 cm3/mol
	Gaylussite       -3.59*   -13.01   -9.42  CaNa2(CO3)2:5H2O	 Delta_V -26.19 cm3/mol
	Glaserite        -8.05*   -11.86   -3.80  NaK3(SO4)2	 Delta_V  55.65 cm3/mol
	Glauberite       -3.86*    -9.10   -5.25  Na2Ca(SO4)2	 Delta_V   9.31 cm3/mol
	Gypsum           -0.84*    -5.42   -4.58  CaSO4:2H2O	 Delta_V  -3.29 cm3/mol
	H2O(g)           -1.45**   -0.07    1.38  H2O	 Pressure   0.0 atm, phi 0.978.
	H2Sg(g)          -2.34**  -10.32   -7.98  H2Sg	 Delta_V -30.00 cm3/mol	 Pressure   0.0 atm, phi 0.986.
	Halite           -0.67*     0.91    1.58  NaCl	 Delta_V  17.05 cm3/mol
	Hexahydrite      -4.75*    -6.32   -1.58  MgSO4:6H2O	 Delta_V  -6.80 cm3/mol
	Kainite          -6.41*    -6.61   -0.19  KMgClSO4:3H2O	 Delta_V  20.39 cm3/mol
	Kalicinite       -3.52*   -13.57  -10.06  KHCO3	 Delta_V   5.88 cm3/mol
	Kieserite        -5.85*    -5.97   -0.12  MgSO4:H2O	 Delta_V  -6.80 cm3/mol
	Labile_S         -7.40*   -13.07   -5.67  Na4Ca(SO4)3:2H2O	 Delta_V  21.91 cm3/mol
	Leonhardite      -5.29*    -6.18   -0.89  MgSO4:4H2O	 Delta_V  -6.80 cm3/mol
	Leonite          -8.83*   -12.81   -3.98  K2Mg(SO4)2:4H2O	 Delta_V  26.10 cm3/mol
	Magnesite         0.17*    -7.68   -7.85  MgCO3	 Delta_V -24.55 cm3/mol
	Mirabilite       -3.53*    -4.53   -1.00  Na2SO4:10H2O	 Delta_V  12.60 cm3/mol
	Misenite        -66.60*   -77.41  -10.81  K8H6(SO4)7	 Delta_V 174.66 cm3/mol
	Mth(g)            0.21**   -2.67   -2.88  Mth	 Delta_V -33.00 cm3/mol	 Pressure   1.6 atm, phi 0.996.
	Nahcolite        -1.43*   -12.17  -10.74  NaHCO3	 Delta_V  -4.27 cm3/mol
	Natron           -5.48*    -6.30   -0.82  Na2CO3:10H2O	 Delta_V  -5.15 cm3/mol
	Nesquehonite     -2.72*    -7.89   -5.17  MgCO3:3H2O	 Delta_V -24.55 cm3/mol
	Ng(g)            -0.83**   -4.03   -3.20  Ng	 Delta_V -30.00 cm3/mol	 Pressure   0.1 atm, phi 1.000.
	Pentahydrite     -4.97*    -6.25   -1.28  MgSO4:5H2O	 Delta_V  -6.80 cm3/mol
	Pirssonite       -3.57*   -12.80   -9.23  Na2Ca(CO3)2:2H2O	 Delta_V -26.19 cm3/mol
	Polyhalite       -9.48*   -23.23  -13.74  K2MgCa2(SO4)4:2H2O	 Delta_V  19.51 cm3/mol
	Portlandite     -10.95*   -16.14   -5.19  Ca(OH)2	 Delta_V -17.65 cm3/mol
	Schoenite        -8.62*   -12.95   -4.33  K2Mg(SO4)2:6H2O	 Delta_V  26.10 cm3/mol
	Strontianite      0.65*    -8.63   -9.28  SrCO3	 Delta_V -22.13 cm3/mol
	Sylvite          -1.45*    -0.50    0.95  KCl	 Delta_V  27.19 cm3/mol
	Syngenite        -4.53*   -11.98   -7.45  K2Ca(SO4)2:H2O	 Delta_V  29.61 cm3/mol
	Trona            -6.53*   -17.91  -11.38  Na3H(CO3)2:2H2O	 Delta_V  -9.42 cm3/mol
	                      *  with Delta_V * (P - 1) / 2.3RT.
	                      ** SI from Peng-Robinson fugacity - Delta_V * (P - 1) / 2.3RT.

------------------
End of simulation.
------------------

------------------------------------
Reading input data for simulation 4.
------------------------------------

-----------
End of run.
-----------

