WARNING: Database file from DATABASE keyword is used; command line argument ignored.
   Input file: PR_initial_gas
  Output file: PR_initial_gas.out
Database file: ../database/phreeqc.dat

------------------
Reading data base.
------------------

	SOLUTION_MASTER_SPECIES
	SOLUTION_SPECIES
	PHASES
	EXCHANGE_MASTER_SPECIES
	EXCHANGE_SPECIES
	SURFACE_MASTER_SPECIES
	SURFACE_SPECIES
	RATES
	END
------------------------------------
Reading input data for simulation 1.
------------------------------------

	database ../database/phreeqc.dat
	SELECTED_OUTPUT 101
	    file                 PR_initial_gas_101.sel
	USER_PUNCH 101
	    headings Mu SC
	    start
	10 PUNCH STR_F$(MU, 20, 12)
	20 PUNCH STR_F$(SC, 20, 10)
	    end
	PHASES
	CO2(g)
		CO2 = CO2
		log_k	-1.468
		delta_h  -4.776 kcal
		analytical_expression	108.3865	0.01985076	-6919.53	-40.45154	669365.0
		t_c  304.2 # critical T, K
		p_c   72.80 # critical P, atm
		omega 0.225 #  acentric factor
		vm  -28   
	CH4(g)
		CH4 = CH4
		log_k	   -2.8502
		analytical_expression -2.4027e+001 4.7146e-003 3.7227e+002 6.4264e+000 2.3362e+005
		T_c  190.6 # critical T, K
		p_c   45.40 # critical P, atm
		omega 0.008 #  acentric factor
		vm -33
	N2(g)
		N2 = N2
		log_k		 -3.1864
		analytical_expression -58.453 1.81800E-03  3199  17.909 -27460
		T_c  126.2 # critical T, K
		p_c   33.50 # critical P, atm
		omega 0.039 #  acentric factor
		vm -30
	GAS_PHASE 1
	     fixed_volume          # or fixed_pressure, see the manual
		 pressure 100
	     volume 1              # 1 L by default
	     CO2(g) 0               # gas name from PHASES, initial partial pressure = 0
		 CH4(g) 100  # pressure becomes 23 atm in the previous tidy & prep
	SOLUTION 1
	END
-------------------------------------------
Beginning of initial solution calculations.
-------------------------------------------

Initial solution 1.	

-----------------------------Solution composition------------------------------

	Elements           Molality       Moles

	Pure water     

----------------------------Description of solution----------------------------

                                       pH  =   7.000    
                                       pe  =   4.000    
       Specific Conductance (µS/cm, 25°C)  = 0
                          Density (g/cm³)  =   0.99704
                               Volume (L)  =   1.00297
                        Activity of water  =   1.000
                           Ionic strength  =   1.007e-07
                       Mass of water (kg)  =   1.000e+00
                 Total alkalinity (eq/kg)  =   1.217e-09
                    Total carbon (mol/kg)  =   0.000e+00
                       Total CO2 (mol/kg)  =   0.000e+00
                         Temperature (°C)  =  25.00
                  Electrical balance (eq)  =  -1.217e-09
 Percent error, 100*(Cat-|An|)/(Cat+|An|)  =  -0.60
                               Iterations  =   0
                                  Total H  = 1.110124e+02
                                  Total O  = 5.550622e+01

----------------------------Distribution of species----------------------------

                                               Log       Log       Log    mole V
   Species          Molality    Activity  Molality  Activity     Gamma   cm³/mol

   OH-             1.013e-07   1.012e-07    -6.995    -6.995    -0.000     -4.14
   H+              1.001e-07   1.000e-07    -7.000    -7.000    -0.000      0.00
   H2O             5.551e+01   1.000e+00     1.744     0.000     0.000     18.07
H(0)          1.416e-25
   H2              7.079e-26   7.079e-26   -25.150   -25.150     0.000     28.61
O(0)          0.000e+00
   O2              0.000e+00   0.000e+00   -42.080   -42.080     0.000     30.40

------------------------------Saturation indices-------------------------------

  Phase               SI** log IAP   log K(298 K,   1 atm)

  H2(g)           -22.05    -25.15   -3.10  H2
  H2O(g)           -1.50      0.00    1.50  H2O
  O2(g)           -39.19    -42.08   -2.89  O2

**For a gas, SI = log10(fugacity). Fugacity = pressure * phi / 1 atm.
  For ideal gases, phi = 1.

-----------------------------------------
Beginning of batch-reaction calculations.
-----------------------------------------

Reaction step 1.

Using solution 1.	
Using gas phase 1.	

-----------------------------------Gas phase-----------------------------------

Total pressure: 98.41      atmospheres          (Peng-Robinson calculation)
    Gas volume:   1.00e+00 liters
  Molar volume:   2.06e-01 liters/mole
   P * Vm / RT:  0.82902  (Compressibility Factor Z) 

                                                        Moles in gas
                                            ----------------------------------
Component         log P           P    phi     Initial       Final       Delta

CH4(g)             1.99   9.841e+01  0.819   4.940e+00   4.852e+00  -8.804e-02
CO2(g)            -7.08   8.343e-08  0.613   0.000e+00   4.114e-09   4.114e-09

-----------------------------Solution composition------------------------------

	Elements           Molality       Moles

	C                 8.804e-02   8.804e-02

----------------------------Description of solution----------------------------

                                       pH  =   6.968      Charge balance
                                       pe  =  -4.904      Adjusted to redox equilibrium
       Specific Conductance (µS/cm, 25°C)  = 0
                          Density (g/cm³)  =   0.99969
                               Volume (L)  =   1.00172
                        Activity of water  =   0.999
                           Ionic strength  =   1.082e-07
                       Mass of water (kg)  =   1.000e+00
                 Total alkalinity (eq/kg)  =   1.217e-09
                       Total CO2 (mol/kg)  =   7.626e-09
                         Temperature (°C)  =  25.00
                           Pressure (atm)  = 98.41
                  Electrical balance (eq)  =  -1.217e-09
 Percent error, 100*(Cat-|An|)/(Cat+|An|)  =  -0.56
                               Iterations  =  36
                                  Total H  = 1.113646e+02
                                  Total O  = 5.550622e+01

----------------------------Distribution of species----------------------------

                                               Log       Log       Log    mole V
   Species          Molality    Activity  Molality  Activity     Gamma   cm³/mol

   H+              1.076e-07   1.075e-07    -6.968    -6.968    -0.000      0.00
   OH-             1.025e-07   1.025e-07    -6.989    -6.989    -0.000     -3.78
   H2O             5.551e+01   9.985e-01     1.744    -0.001     0.000     17.99
C(-4)         8.804e-02
   CH4             8.804e-02   8.804e-02    -1.055    -1.055     0.000     35.59
C(4)          7.626e-09
   HCO3-           6.265e-09   6.262e-09    -8.203    -8.203    -0.000     24.74
   CO2             1.358e-09   1.358e-09    -8.867    -8.867     0.000     34.39
   CO3-2           3.073e-12   3.068e-12   -11.512   -11.513    -0.001     -4.51
   (CO2)2          3.387e-20   3.387e-20   -19.470   -19.470     0.000     68.77
H(0)          9.392e-08
   H2              4.696e-08   4.696e-08    -7.328    -7.328     0.000     28.56
O(0)          0.000e+00
   O2              0.000e+00   0.000e+00   -77.814   -77.814     0.000     30.26

------------------------------Saturation indices-------------------------------

  Phase               SI** log IAP   log K(298 K,  98 atm)

  CH4(g)            1.91     -1.06   -2.96  CH4	 Pressure  98.4 atm, phi 0.819
  CO2(g)           -7.29     -8.87   -1.58  CO2	 Pressure   0.0 atm, phi 0.613
  H2(g)            -4.18     -7.33   -3.15  H2
  H2O(g)           -1.47     -0.00    1.47  H2O
  O2(g)           -74.87    -77.81   -2.94  O2

**For a gas, SI = log10(fugacity). Fugacity = pressure * phi / 1 atm.
  For ideal gases, phi = 1.

------------------
End of simulation.
------------------

------------------------------------
Reading input data for simulation 2.
------------------------------------

------------------------------
End of Run after 0.01 Seconds.
------------------------------

