WARNING: Database file from DATABASE keyword is used; command line argument ignored.
   Input file: PR_mx_new
  Output file: PR_mx_new.out
Database file: ../database/phreeqc.dat

------------------
Reading data base.
------------------

	SOLUTION_MASTER_SPECIES
	SOLUTION_SPECIES
	PHASES
	EXCHANGE_MASTER_SPECIES
	EXCHANGE_SPECIES
	SURFACE_MASTER_SPECIES
	SURFACE_SPECIES
	RATES
	END
------------------------------------
Reading input data for simulation 1.
------------------------------------

	DATABASE ../database/phreeqc.dat
	SOLUTION 1
	GAS_PHASE 1
	 fixed_volume
	 CH4(g) 0
	 CO2(g) 0
	 N2(g) 0
	 H2O(g) 0
	REACTION 1
	 CO2N2CH4 1
	 0.01 13*0.5
	INCREMENTAL_REACTIONS true
	USER_GRAPH 1 fugacity coeff's
	 -headings P f_H2O f_CO2 f_N2 f_CH4 sys_C sys_N
	 -axis_titles "Total Pressure / atm" "PR fugacity coefficient" "mol"
	 -axis_scale x_axis 0 500
	 10 x = pressure
	 12 if x > 500 then goto 400
	 20 graph_x x
	 30 graph_y pr_phi("H2O(g)"), pr_phi("CO2(g)"), pr_phi("N2(g)"), pr_phi("CH4(g)")
	 40 graph_sy sys("C"), sys("N")
	400 end
	USER_GRAPH 2 Gas pressures
	 -headings P P_H2O P_CO2 P_N2 P_CH4 m_CO2 m_N2 m_CH4
	 -axis_titles "Total Pressure / atm" "(individual) Gas Pressure / atm" "mol/L"
	 -axis_scale x_axis 0 500
	 10 x = gas_p
	 12 if x > 500 then goto 400
	 20 graph_x x
	 30 graph_y pr_p("H2O(g)"), pr_p("CO2(g)"), pr_p("N2(g)"), pr_p("CH4(g)")
	 40 graph_sy tot("C(4)"), tot("N(0)"), tot("C(-4)")
	400 print 'temp (oC) = ', trim(str$(tc)), '. step ', trim(str$(step_no))
	404 mol_gas = gas("H2O(g)") + gas("CO2(g)") + gas("N2(g)") + gas("CH4(g)")
	410 print 'P = ', str$(x), 'V_m = ', 1 / mol_gas, ' z = P * V_m / (R * TK) = ', x / (mol_gas * 0.0820575 * TK)
	430 print '  fugacities:     f_H2O = ', pr_phi("H2O(g)"), 'f_CO2 =', pr_phi("CO2(g)"), 'f_N2 =', pr_phi("N2(g)"), 'f_CH4 =', pr_phi("CH4(g)")
	420 print '  moles in gas:   m_H2O = ', gas("H2O(g)"), 'm_CO2 =', gas("CO2(g)"), 'm_N2 =', gas("N2(g)"), 'm_CH4 =', gas("CH4(g)")
	440 end
	END
-------------------------------------------
Beginning of initial solution calculations.
-------------------------------------------

Initial solution 1.	

-----------------------------Solution composition------------------------------

	Elements           Molality       Moles

	Pure water     

----------------------------Description of solution----------------------------

                                       pH  =   7.000    
                                       pe  =   4.000    
       Specific Conductance (µS/cm, 25°C)  = 0
                          Density (g/cm³)  =   0.99704
                               Volume (L)  =   1.00297
                        Activity of water  =   1.000
                           Ionic strength  =   1.007e-07
                       Mass of water (kg)  =   1.000e+00
                 Total alkalinity (eq/kg)  =   1.217e-09
                    Total carbon (mol/kg)  =   0.000e+00
                       Total CO2 (mol/kg)  =   0.000e+00
                         Temperature (°C)  =  25.00
                  Electrical balance (eq)  =  -1.217e-09
 Percent error, 100*(Cat-|An|)/(Cat+|An|)  =  -0.60
                               Iterations  =   0
                                  Total H  = 1.110124e+02
                                  Total O  = 5.550622e+01

----------------------------Distribution of species----------------------------

                                               Log       Log       Log    mole V
   Species          Molality    Activity  Molality  Activity     Gamma   cm³/mol

   OH-             1.013e-07   1.012e-07    -6.995    -6.995    -0.000     -4.14
   H+              1.001e-07   1.000e-07    -7.000    -7.000    -0.000      0.00
   H2O             5.551e+01   1.000e+00     1.744     0.000     0.000     18.07
H(0)          1.416e-25
   H2              7.079e-26   7.079e-26   -25.150   -25.150     0.000     28.61
O(0)          0.000e+00
   O2              0.000e+00   0.000e+00   -42.080   -42.080     0.000     30.40

------------------------------Saturation indices-------------------------------

  Phase               SI** log IAP   log K(298 K,   1 atm)

  H2(g)           -22.05    -25.15   -3.10  H2
  H2O(g)           -1.50      0.00    1.50  H2O
  O2(g)           -39.19    -42.08   -2.89  O2

**For a gas, SI = log10(fugacity). Fugacity = pressure * phi / 1 atm.
  For ideal gases, phi = 1.

-----------------------------------------
Beginning of batch-reaction calculations.
-----------------------------------------

Reaction step 1.

Using solution 1.	
Using gas phase 1.	
Using reaction 1.	

Reaction 1.	

	  1.000e-02 moles of the following reaction have been added:

	                 Relative
	Reactant            moles

	CO2N2CH4             1.00000

	                 Relative
	Element             moles
	C                    2.00000
	H                    4.00000
	N                    2.00000
	O                    2.00000

-----------------------------------Gas phase-----------------------------------

Total pressure:  0.51      atmospheres          (Peng-Robinson calculation)
    Gas volume:   1.00e+00 liters
  Molar volume:   4.75e+01 liters/mole
   P * Vm / RT:  0.99889  (Compressibility Factor Z) 

                                                        Moles in gas
                                            ----------------------------------
Component         log P           P    phi     Initial       Final       Delta

CH4(g)            -0.70   1.978e-01  0.999   0.000e+00   8.092e-03   8.092e-03
CO2(g)            -1.01   9.687e-02  0.997   0.000e+00   3.964e-03   3.964e-03
H2O(g)            -1.50   3.151e-02  0.997   0.000e+00   1.289e-03   1.289e-03
N2(g)             -0.72   1.884e-01  1.000   0.000e+00   7.708e-03   7.708e-03

-----------------------------Solution composition------------------------------

	Elements           Molality       Moles

	C                 7.946e-03   7.944e-03
	N                 4.584e-03   4.583e-03

----------------------------Description of solution----------------------------

                                       pH  =   6.434      Charge balance
                                       pe  =  -3.252      Adjusted to redox equilibrium
       Specific Conductance (µS/cm, 25°C)  = 492
                          Density (g/cm³)  =   0.99722
                               Volume (L)  =   1.00312
                        Activity of water  =   1.000
                           Ionic strength  =   4.328e-03
                       Mass of water (kg)  =   9.998e-01
                 Total alkalinity (eq/kg)  =   4.333e-03
                       Total CO2 (mol/kg)  =   7.662e-03
                         Temperature (°C)  =  25.00
                           Pressure (atm)  =  0.51
                  Electrical balance (eq)  =  -1.217e-09
 Percent error, 100*(Cat-|An|)/(Cat+|An|)  =  -0.00
                               Iterations  =  34
                                  Total H  = 1.110175e+02
                                  Total O  = 5.551700e+01

----------------------------Distribution of species----------------------------

                                               Log       Log       Log    mole V
   Species          Molality    Activity  Molality  Activity     Gamma   cm³/mol

   H+              3.924e-07   3.679e-07    -6.406    -6.434    -0.028      0.00
   OH-             2.956e-08   2.751e-08    -7.529    -7.561    -0.031     -4.07
   H2O             5.551e+01   9.998e-01     1.744    -0.000     0.000     18.07
C(-4)         2.833e-04
   CH4             2.833e-04   2.836e-04    -3.548    -3.547     0.000     32.22
C(4)          7.662e-03
   HCO3-           4.326e-03   4.037e-03    -2.364    -2.394    -0.030     24.72
   CO2             3.336e-03   3.339e-03    -2.477    -2.476     0.000     29.09
   CO3-2           6.787e-07   5.146e-07    -6.168    -6.289    -0.120     -5.15
H(0)          6.099e-10
   H2              3.049e-10   3.052e-10    -9.516    -9.515     0.000     28.61
N(-3)         4.333e-03
   NH4+            4.327e-03   4.021e-03    -2.364    -2.396    -0.032     17.99
   NH3             6.223e-06   6.229e-06    -5.206    -5.206     0.000     24.42
N(0)          2.511e-04
   N2              1.256e-04   1.257e-04    -3.901    -3.901     0.000     29.29
N(3)          0.000e+00
   NO2-            0.000e+00   0.000e+00   -60.907   -60.938    -0.032     25.00
N(5)          0.000e+00
   NO3-            0.000e+00   0.000e+00   -83.111   -83.143    -0.032     29.52
O(0)          0.000e+00
   O2              0.000e+00   0.000e+00   -73.350   -73.349     0.000     30.40

------------------------------Saturation indices-------------------------------

  Phase               SI** log IAP   log K(298 K,   1 atm)

  CH4(g)           -0.70     -3.55   -2.84  CH4	 Pressure   0.2 atm, phi 0.999
  CO2(g)           -1.01     -2.48   -1.46  CO2	 Pressure   0.1 atm, phi 0.997
  H2(g)            -6.41     -9.52   -3.10  H2
  H2O(g)           -1.50     -0.00    1.50  H2O	 Pressure   0.0 atm, phi 0.997
  N2(g)            -0.72     -3.90   -3.18  N2	 Pressure   0.2 atm, phi 1.000
  NH3(g)           -7.00     -5.21    1.80  NH3
  O2(g)           -70.46    -73.35   -2.89  O2

**For a gas, SI = log10(fugacity). Fugacity = pressure * phi / 1 atm.
  For ideal gases, phi = 1.

Reaction step 2.

Using solution 1.	
Using gas phase 1.	
Using reaction 1.	

Reaction 1.	

	  5.000e-01 moles of the following reaction have been added:

	                 Relative
	Reactant            moles

	CO2N2CH4             1.00000

	                 Relative
	Element             moles
	C                    2.00000
	H                    4.00000
	N                    2.00000
	O                    2.00000

-----------------------------------Gas phase-----------------------------------

Total pressure: 27.30      atmospheres          (Peng-Robinson calculation)
    Gas volume:   1.00e+00 liters
  Molar volume:   8.49e-01 liters/mole
   P * Vm / RT:  0.94706  (Compressibility Factor Z) 

                                                        Moles in gas
                                            ----------------------------------
Component         log P           P    phi     Initial       Final       Delta

CH4(g)             1.03   1.060e+01  0.942   8.092e-03   4.574e-01   4.493e-01
CO2(g)             0.79   6.207e+00  0.875   3.964e-03   2.679e-01   2.639e-01
H2O(g)            -1.44   3.633e-02  0.876   1.289e-03   1.568e-03   2.788e-04
N2(g)              1.02   1.046e+01  0.999   7.708e-03   4.513e-01   4.436e-01

-----------------------------Solution composition------------------------------

	Elements           Molality       Moles

	C                 2.957e-01   2.947e-01
	N                 1.178e-01   1.174e-01

----------------------------Description of solution----------------------------

                                       pH  =   5.999      Charge balance
                                       pe  =  -2.812      Adjusted to redox equilibrium
       Specific Conductance (µS/cm, 25°C)  = 10508
                          Density (g/cm³)  =   1.00430
                               Volume (L)  =   1.00878
                        Activity of water  =   0.993
                           Ionic strength  =   1.046e-01
                       Mass of water (kg)  =   9.967e-01
                 Total alkalinity (eq/kg)  =   1.046e-01
                       Total CO2 (mol/kg)  =   2.822e-01
                         Temperature (°C)  =  25.00
                           Pressure (atm)  = 27.30
                  Electrical balance (eq)  =  -6.972e-10
 Percent error, 100*(Cat-|An|)/(Cat+|An|)  =  -0.00
                               Iterations  =  31
                                  Total H  = 1.112196e+02
                                  Total O  = 5.598888e+01

----------------------------Distribution of species----------------------------

                                               Log       Log       Log    mole V
   Species          Molality    Activity  Molality  Activity     Gamma   cm³/mol

   H+              1.216e-06   1.001e-06    -5.915    -5.999    -0.084      0.00
   OH-             1.355e-08   1.028e-08    -7.868    -7.988    -0.120     -3.62
   H2O             5.551e+01   9.931e-01     1.744    -0.003     0.000     18.05
C(-4)         1.351e-02
   CH4             1.351e-02   1.384e-02    -1.869    -1.859     0.010     32.22
C(4)          2.822e-01
   CO2             1.776e-01   1.819e-01    -0.751    -0.740     0.010     29.20
   HCO3-           1.046e-01   8.217e-02    -0.981    -1.085    -0.105     25.22
   CO3-2           1.041e-05   3.971e-06    -4.982    -5.401    -0.419     -3.89
H(0)          5.663e-10
   H2              2.831e-10   2.900e-10    -9.548    -9.538     0.010     28.59
N(-3)         1.046e-01
   NH4+            1.046e-01   7.750e-02    -0.981    -1.111    -0.130     18.22
   NH3             4.277e-05   4.381e-05    -4.369    -4.358     0.010     24.46
N(0)          1.318e-02
   N2              6.591e-03   6.751e-03    -2.181    -2.171     0.010     29.29
N(3)          0.000e+00
   NO2-            0.000e+00   0.000e+00   -60.364   -60.489    -0.125     25.23
N(5)          0.000e+00
   NO3-            0.000e+00   0.000e+00   -82.556   -82.681    -0.125     29.74
O(0)          0.000e+00
   O2              0.000e+00   0.000e+00   -73.345   -73.335     0.010     30.36

------------------------------Saturation indices-------------------------------

  Phase               SI** log IAP   log K(298 K,  27 atm)

  CH4(g)            1.00     -1.86   -2.86  CH4	 Pressure  10.6 atm, phi 0.942
  CO2(g)            0.73     -0.74   -1.48  CO2	 Pressure   6.2 atm, phi 0.875
  H2(g)            -6.42     -9.54   -3.11  H2
  H2O(g)           -1.50     -0.00    1.49  H2O	 Pressure   0.0 atm, phi 0.876
  N2(g)             1.02     -2.17   -3.19  N2	 Pressure  10.5 atm, phi 0.999
  NH3(g)           -6.14     -4.36    1.78  NH3
  O2(g)           -70.43    -73.33   -2.91  O2

**For a gas, SI = log10(fugacity). Fugacity = pressure * phi / 1 atm.
  For ideal gases, phi = 1.

Reaction step 3.

Using solution 1.	
Using gas phase 1.	
Using reaction 1.	

Reaction 1.	

	  5.000e-01 moles of the following reaction have been added:

	                 Relative
	Reactant            moles

	CO2N2CH4             1.00000

	                 Relative
	Element             moles
	C                    2.00000
	H                    4.00000
	N                    2.00000
	O                    2.00000

-----------------------------------Gas phase-----------------------------------

Total pressure: 53.42      atmospheres          (Peng-Robinson calculation)
    Gas volume:   1.00e+00 liters
  Molar volume:   4.12e-01 liters/mole
   P * Vm / RT:  0.89958  (Compressibility Factor Z) 

                                                        Moles in gas
                                            ----------------------------------
Component         log P           P    phi     Initial       Final       Delta

CH4(g)             1.31   2.029e+01  0.892   4.574e-01   9.220e-01   4.646e-01
CO2(g)             1.11   1.302e+01  0.769   2.679e-01   5.916e-01   3.237e-01
H2O(g)            -1.37   4.220e-02  0.765   1.568e-03   1.917e-03   3.494e-04
N2(g)              1.30   2.006e+01  1.003   4.513e-01   9.115e-01   4.603e-01

-----------------------------Solution composition------------------------------

	Elements           Molality       Moles

	C                 5.092e-01   5.064e-01
	N                 1.980e-01   1.969e-01

----------------------------Description of solution----------------------------

                                       pH  =   5.943      Charge balance
                                       pe  =  -2.756      Adjusted to redox equilibrium
       Specific Conductance (µS/cm, 25°C)  = 16891
                          Density (g/cm³)  =   1.00954
                               Volume (L)  =   1.01289
                        Activity of water  =   0.988
                           Ionic strength  =   1.737e-01
                       Mass of water (kg)  =   9.945e-01
                 Total alkalinity (eq/kg)  =   1.738e-01
                       Total CO2 (mol/kg)  =   4.859e-01
                         Temperature (°C)  =  25.00
                           Pressure (atm)  = 53.42
                  Electrical balance (eq)  =  -3.340e-10
 Percent error, 100*(Cat-|An|)/(Cat+|An|)  =  -0.00
                               Iterations  =  27
                                  Total H  = 1.113605e+02
                                  Total O  = 5.634109e+01

----------------------------Distribution of species----------------------------

                                               Log       Log       Log    mole V
   Species          Molality    Activity  Molality  Activity     Gamma   cm³/mol

   H+              1.420e-06   1.141e-06    -5.848    -5.943    -0.095      0.00
   OH-             1.277e-08   9.178e-09    -7.894    -8.037    -0.143     -3.37
   H2O             5.551e+01   9.882e-01     1.744    -0.005     0.000     18.03
C(-4)         2.329e-02
   CH4             2.329e-02   2.424e-02    -1.633    -1.615     0.017     32.22
C(4)          4.859e-01
   CO2             3.122e-01   3.249e-01    -0.506    -0.488     0.017     29.31
   HCO3-           1.737e-01   1.312e-01    -0.760    -0.882    -0.122     25.49
   CO3-2           1.763e-05   5.735e-06    -4.754    -5.241    -0.488     -3.28
H(0)          5.422e-10
   H2              2.711e-10   2.822e-10    -9.567    -9.549     0.017     28.58
N(-3)         1.738e-01
   NH4+            1.737e-01   1.207e-01    -0.760    -0.918    -0.158     18.32
   NH3             5.719e-05   5.952e-05    -4.243    -4.225     0.017     24.51
N(0)          2.423e-02
   N2              1.212e-02   1.261e-02    -1.917    -1.899     0.017     29.29
N(3)          0.000e+00
   NO2-            0.000e+00   0.000e+00   -60.254   -60.404    -0.150     25.31
N(5)          0.000e+00
   NO3-            0.000e+00   0.000e+00   -82.444   -82.594    -0.150     29.80
O(0)          0.000e+00
   O2              0.000e+00   0.000e+00   -73.357   -73.339     0.017     30.32

------------------------------Saturation indices-------------------------------

  Phase               SI** log IAP   log K(298 K,  53 atm)

  CH4(g)            1.26     -1.62   -2.87  CH4	 Pressure  20.3 atm, phi 0.892
  CO2(g)            1.00     -0.49   -1.49  CO2	 Pressure  13.0 atm, phi 0.769
  H2(g)            -6.42     -9.55   -3.13  H2
  H2O(g)           -1.49     -0.01    1.49  H2O	 Pressure   0.0 atm, phi 0.765
  N2(g)             1.30     -1.90   -3.20  N2	 Pressure  20.1 atm, phi 1.003
  NH3(g)           -6.00     -4.23    1.77  NH3
  O2(g)           -70.42    -73.34   -2.92  O2

**For a gas, SI = log10(fugacity). Fugacity = pressure * phi / 1 atm.
  For ideal gases, phi = 1.

Reaction step 4.

Using solution 1.	
Using gas phase 1.	
Using reaction 1.	

Reaction 1.	

	  5.000e-01 moles of the following reaction have been added:

	                 Relative
	Reactant            moles

	CO2N2CH4             1.00000

	                 Relative
	Element             moles
	C                    2.00000
	H                    4.00000
	N                    2.00000
	O                    2.00000

-----------------------------------Gas phase-----------------------------------

Total pressure: 78.56      atmospheres          (Peng-Robinson calculation)
    Gas volume:   1.00e+00 liters
  Molar volume:   2.67e-01 liters/mole
   P * Vm / RT:  0.85890  (Compressibility Factor Z) 

                                                        Moles in gas
                                            ----------------------------------
Component         log P           P    phi     Initial       Final       Delta

CH4(g)             1.47   2.931e+01  0.849   9.220e-01   1.395e+00   4.727e-01
CO2(g)             1.31   2.021e+01  0.679   5.916e-01   9.617e-01   3.701e-01
H2O(g)            -1.31   4.910e-02  0.667   1.917e-03   2.337e-03   4.193e-04
N2(g)              1.46   2.900e+01  1.013   9.115e-01   1.380e+00   4.684e-01

-----------------------------Solution composition------------------------------

	Elements           Molality       Moles

	C                 6.684e-01   6.636e-01
	N                 2.620e-01   2.601e-01

----------------------------Description of solution----------------------------

                                       pH  =   5.920      Charge balance
                                       pe  =  -2.735      Adjusted to redox equilibrium
       Specific Conductance (µS/cm, 25°C)  = 21761
                          Density (g/cm³)  =   1.01365
                               Volume (L)  =   1.01572
                        Activity of water  =   0.984
                           Ionic strength  =   2.281e-01
                       Mass of water (kg)  =   9.928e-01
                 Total alkalinity (eq/kg)  =   2.281e-01
                       Total CO2 (mol/kg)  =   6.378e-01
                         Temperature (°C)  =  25.00
                           Pressure (atm)  = 78.56
                  Electrical balance (eq)  =  -8.639e-11
 Percent error, 100*(Cat-|An|)/(Cat+|An|)  =  -0.00
                               Iterations  =  27
                                  Total H  = 1.114690e+02
                                  Total O  = 5.660046e+01

----------------------------Distribution of species----------------------------

                                               Log       Log       Log    mole V
   Species          Molality    Activity  Molality  Activity     Gamma   cm³/mol

   H+              1.516e-06   1.202e-06    -5.819    -5.920    -0.101      0.00
   OH-             1.271e-08   8.863e-09    -7.896    -8.052    -0.157     -3.16
   H2O             5.551e+01   9.845e-01     1.744    -0.007     0.000     18.01
C(-4)         3.060e-02
   CH4             3.060e-02   3.225e-02    -1.514    -1.491     0.023     32.22
C(4)          6.378e-01
   CO2             4.098e-01   4.319e-01    -0.387    -0.365     0.023     29.42
   HCO3-           2.280e-01   1.685e-01    -0.642    -0.773    -0.131     25.69
   CO3-2           2.413e-05   7.194e-06    -4.618    -5.143    -0.526     -2.81
H(0)          5.243e-10
   H2              2.621e-10   2.763e-10    -9.581    -9.559     0.023     28.57
N(-3)         2.281e-01
   NH4+            2.281e-01   1.527e-01    -0.642    -0.816    -0.174     18.40
   NH3             6.734e-05   7.097e-05    -4.172    -4.149     0.023     24.55
N(0)          3.388e-02
   N2              1.694e-02   1.786e-02    -1.771    -1.748     0.023     29.29
N(3)          0.000e+00
   NO2-            0.000e+00   0.000e+00   -60.184   -60.349    -0.165     25.36
N(5)          0.000e+00
   NO3-            0.000e+00   0.000e+00   -82.373   -82.538    -0.165     29.82
O(0)          0.000e+00
   O2              0.000e+00   0.000e+00   -73.370   -73.347     0.023     30.29

------------------------------Saturation indices-------------------------------

  Phase               SI** log IAP   log K(298 K,  79 atm)

  CH4(g)            1.40     -1.49   -2.89  CH4	 Pressure  29.3 atm, phi 0.849
  CO2(g)            1.14     -0.36   -1.50  CO2	 Pressure  20.2 atm, phi 0.679
  H2(g)            -6.42     -9.56   -3.14  H2
  H2O(g)           -1.48     -0.01    1.48  H2O	 Pressure   0.0 atm, phi 0.667
  N2(g)             1.47     -1.75   -3.22  N2	 Pressure  29.0 atm, phi 1.013
  NH3(g)           -5.91     -4.15    1.76  NH3
  O2(g)           -70.41    -73.35   -2.93  O2

**For a gas, SI = log10(fugacity). Fugacity = pressure * phi / 1 atm.
  For ideal gases, phi = 1.

Reaction step 5.

Using solution 1.	
Using gas phase 1.	
Using reaction 1.	

Reaction 1.	

	  5.000e-01 moles of the following reaction have been added:

	                 Relative
	Reactant            moles

	CO2N2CH4             1.00000

	                 Relative
	Element             moles
	C                    2.00000
	H                    4.00000
	N                    2.00000
	O                    2.00000

-----------------------------------Gas phase-----------------------------------

Total pressure: 103.02      atmospheres          (Peng-Robinson calculation)
    Gas volume:   1.00e+00 liters
  Molar volume:   1.96e-01 liters/mole
   P * Vm / RT:  0.82627  (Compressibility Factor Z) 

                                                        Moles in gas
                                            ----------------------------------
Component         log P           P    phi     Initial       Final       Delta

CH4(g)             1.58   3.786e+01  0.812   1.395e+00   1.873e+00   4.780e-01
CO2(g)             1.44   2.764e+01  0.603   9.617e-01   1.367e+00   4.054e-01
H2O(g)            -1.24   5.711e-02  0.582   2.337e-03   2.825e-03   4.883e-04
N2(g)              1.57   3.747e+01  1.026   1.380e+00   1.854e+00   4.737e-01

-----------------------------Solution composition------------------------------

	Elements           Molality       Moles

	C                 7.869e-01   7.802e-01
	N                 3.154e-01   3.127e-01

----------------------------Description of solution----------------------------

                                       pH  =   5.912      Charge balance
                                       pe  =  -2.730      Adjusted to redox equilibrium
       Specific Conductance (µS/cm, 25°C)  = 25685
                          Density (g/cm³)  =   1.01695
                               Volume (L)  =   1.01757
                        Activity of water  =   0.982
                           Ionic strength  =   2.727e-01
                       Mass of water (kg)  =   9.914e-01
                 Total alkalinity (eq/kg)  =   2.727e-01
                       Total CO2 (mol/kg)  =   7.507e-01
                         Temperature (°C)  =  25.00
                           Pressure (atm)  = 103.02
                  Electrical balance (eq)  =   1.565e-10
 Percent error, 100*(Cat-|An|)/(Cat+|An|)  =   0.00
                               Iterations  =  27
                                  Total H  = 1.115562e+02
                                  Total O  = 5.678908e+01

----------------------------Distribution of species----------------------------

                                               Log       Log       Log    mole V
   Species          Molality    Activity  Molality  Activity     Gamma   cm³/mol

   H+              1.557e-06   1.225e-06    -5.808    -5.912    -0.104      0.00
   OH-             1.296e-08   8.853e-09    -7.887    -8.053    -0.166     -2.99
   H2O             5.551e+01   9.816e-01     1.744    -0.008     0.000     17.99
C(-4)         3.626e-02
   CH4             3.626e-02   3.861e-02    -1.441    -1.413     0.027     32.22
C(4)          7.507e-01
   CO2             4.781e-01   5.090e-01    -0.321    -0.293     0.027     29.52
   HCO3-           2.726e-01   1.986e-01    -0.564    -0.702    -0.138     25.86
   CO3-2           3.038e-05   8.555e-06    -4.517    -5.068    -0.550     -2.42
H(0)          5.104e-10
   H2              2.552e-10   2.718e-10    -9.593    -9.566     0.027     28.56
N(-3)         2.727e-01
   NH4+            2.727e-01   1.779e-01    -0.564    -0.750    -0.185     18.46
   NH3             7.576e-05   8.067e-05    -4.121    -4.093     0.027     24.59
N(0)          4.266e-02
   N2              2.133e-02   2.271e-02    -1.671    -1.644     0.027     29.29
N(3)          0.000e+00
   NO2-            0.000e+00   0.000e+00   -60.129   -60.304    -0.175     25.39
N(5)          0.000e+00
   NO3-            0.000e+00   0.000e+00   -82.319   -82.494    -0.175     29.84
O(0)          0.000e+00
   O2              0.000e+00   0.000e+00   -73.385   -73.358     0.027     30.25

------------------------------Saturation indices-------------------------------

  Phase               SI** log IAP   log K(298 K, 103 atm)

  CH4(g)            1.49     -1.41   -2.90  CH4	 Pressure  37.9 atm, phi 0.812
  CO2(g)            1.22     -0.29   -1.51  CO2	 Pressure  27.6 atm, phi 0.603
  H2(g)            -6.41     -9.57   -3.15  H2
  H2O(g)           -1.48     -0.01    1.47  H2O	 Pressure   0.1 atm, phi 0.582
  N2(g)             1.58     -1.64   -3.23  N2	 Pressure  37.5 atm, phi 1.026
  NH3(g)           -5.84     -4.09    1.75  NH3
  O2(g)           -70.41    -73.36   -2.95  O2

**For a gas, SI = log10(fugacity). Fugacity = pressure * phi / 1 atm.
  For ideal gases, phi = 1.

Reaction step 6.

Using solution 1.	
Using gas phase 1.	
Using reaction 1.	

Reaction 1.	

	  5.000e-01 moles of the following reaction have been added:

	                 Relative
	Reactant            moles

	CO2N2CH4             1.00000

	                 Relative
	Element             moles
	C                    2.00000
	H                    4.00000
	N                    2.00000
	O                    2.00000

-----------------------------------Gas phase-----------------------------------

Total pressure: 127.34      atmospheres          (Peng-Robinson calculation)
    Gas volume:   1.00e+00 liters
  Molar volume:   1.54e-01 liters/mole
   P * Vm / RT:  0.80245  (Compressibility Factor Z) 

                                                        Moles in gas
                                            ----------------------------------
Component         log P           P    phi     Initial       Final       Delta

CH4(g)             1.66   4.622e+01  0.781   1.873e+00   2.354e+00   4.814e-01
CO2(g)             1.55   3.530e+01  0.538   1.367e+00   1.798e+00   4.309e-01
H2O(g)            -1.18   6.632e-02  0.509   2.825e-03   3.378e-03   5.531e-04
N2(g)              1.66   4.576e+01  1.043   1.854e+00   2.331e+00   4.772e-01

-----------------------------Solution composition------------------------------

	Elements           Molality       Moles

	C                 8.764e-01   8.679e-01
	N                 3.619e-01   3.584e-01

----------------------------Description of solution----------------------------

                                       pH  =   5.912      Charge balance
                                       pe  =  -2.733      Adjusted to redox equilibrium
       Specific Conductance (µS/cm, 25°C)  = 29006
                          Density (g/cm³)  =   1.01972
                               Volume (L)  =   1.01870
                        Activity of water  =   0.979
                           Ionic strength  =   3.109e-01
                       Mass of water (kg)  =   9.902e-01
                 Total alkalinity (eq/kg)  =   3.109e-01
                       Total CO2 (mol/kg)  =   8.356e-01
                         Temperature (°C)  =  25.00
                           Pressure (atm)  = 127.34
                  Electrical balance (eq)  =   3.654e-10
 Percent error, 100*(Cat-|An|)/(Cat+|An|)  =   0.00
                               Iterations  =  28
                                  Total H  = 1.116294e+02
                                  Total O  = 5.692676e+01

----------------------------Distribution of species----------------------------

                                               Log       Log       Log    mole V
   Species          Molality    Activity  Molality  Activity     Gamma   cm³/mol

   H+              1.567e-06   1.225e-06    -5.805    -5.912    -0.107      0.00
   OH-             1.339e-08   9.008e-09    -7.873    -8.045    -0.172     -2.83
   H2O             5.551e+01   9.794e-01     1.744    -0.009     0.000     17.97
C(-4)         4.086e-02
   CH4             4.086e-02   4.389e-02    -1.389    -1.358     0.031     32.22
C(4)          8.356e-01
   CO2             5.248e-01   5.637e-01    -0.280    -0.249     0.031     29.62
   HCO3-           3.108e-01   2.241e-01    -0.508    -0.650    -0.142     26.00
   CO3-2           3.670e-05   9.914e-06    -4.435    -5.004    -0.568     -2.08
H(0)          4.992e-10
   H2              2.496e-10   2.681e-10    -9.603    -9.572     0.031     28.55
N(-3)         3.109e-01
   NH4+            3.109e-01   1.989e-01    -0.507    -0.701    -0.194     18.52
   NH3             8.346e-05   8.965e-05    -4.079    -4.047     0.031     24.63
N(0)          5.096e-02
   N2              2.548e-02   2.737e-02    -1.594    -1.563     0.031     29.29
N(3)          0.000e+00
   NO2-            0.000e+00   0.000e+00   -60.082   -60.265    -0.182     25.42
N(5)          0.000e+00
   NO3-            0.000e+00   0.000e+00   -82.273   -82.456    -0.182     29.84
O(0)          0.000e+00
   O2              0.000e+00   0.000e+00   -73.401   -73.370     0.031     30.22

------------------------------Saturation indices-------------------------------

  Phase               SI** log IAP   log K(298 K, 127 atm)

  CH4(g)            1.56     -1.36   -2.92  CH4	 Pressure  46.2 atm, phi 0.781
  CO2(g)            1.28     -0.25   -1.53  CO2	 Pressure  35.3 atm, phi 0.538
  H2(g)            -6.41     -9.57   -3.17  H2
  H2O(g)           -1.47     -0.01    1.46  H2O	 Pressure   0.1 atm, phi 0.509
  N2(g)             1.68     -1.56   -3.24  N2	 Pressure  45.8 atm, phi 1.043
  NH3(g)           -5.79     -4.05    1.74  NH3
  O2(g)           -70.41    -73.37   -2.96  O2

**For a gas, SI = log10(fugacity). Fugacity = pressure * phi / 1 atm.
  For ideal gases, phi = 1.

Reaction step 7.

Using solution 1.	
Using gas phase 1.	
Using reaction 1.	

Reaction 1.	

	  5.000e-01 moles of the following reaction have been added:

	                 Relative
	Reactant            moles

	CO2N2CH4             1.00000

	                 Relative
	Element             moles
	C                    2.00000
	H                    4.00000
	N                    2.00000
	O                    2.00000

-----------------------------------Gas phase-----------------------------------

Total pressure: 152.25      atmospheres          (Peng-Robinson calculation)
    Gas volume:   1.00e+00 liters
  Molar volume:   1.27e-01 liters/mole
   P * Vm / RT:  0.78790  (Compressibility Factor Z) 

                                                        Moles in gas
                                            ----------------------------------
Component         log P           P    phi     Initial       Final       Delta

CH4(g)             1.74   5.470e+01  0.754   2.354e+00   2.838e+00   4.835e-01
CO2(g)             1.64   4.330e+01  0.484   1.798e+00   2.246e+00   4.483e-01
H2O(g)            -1.11   7.689e-02  0.446   3.378e-03   3.989e-03   6.108e-04
N2(g)              1.73   5.417e+01  1.061   2.331e+00   2.810e+00   4.792e-01

-----------------------------Solution composition------------------------------

	Elements           Molality       Moles

	C                 9.464e-01   9.361e-01
	N                 4.044e-01   4.000e-01

----------------------------Description of solution----------------------------

                                       pH  =   5.916      Charge balance
                                       pe  =  -2.741      Adjusted to redox equilibrium
       Specific Conductance (µS/cm, 25°C)  = 31967
                          Density (g/cm³)  =   1.02217
                               Volume (L)  =   1.01931
                        Activity of water  =   0.978
                           Ionic strength  =   3.453e-01
                       Mass of water (kg)  =   9.892e-01
                 Total alkalinity (eq/kg)  =   3.453e-01
                       Total CO2 (mol/kg)  =   9.015e-01
                         Temperature (°C)  =  25.00
                           Pressure (atm)  = 152.25
                  Electrical balance (eq)  =   7.056e-10
 Percent error, 100*(Cat-|An|)/(Cat+|An|)  =   0.00
                               Iterations  =  29
                                  Total H  = 1.116941e+02
                                  Total O  = 5.702961e+01

----------------------------Distribution of species----------------------------

                                               Log       Log       Log    mole V
   Species          Molality    Activity  Molality  Activity     Gamma   cm³/mol

   H+              1.557e-06   1.213e-06    -5.808    -5.916    -0.109      0.00
   OH-             1.395e-08   9.270e-09    -7.855    -8.033    -0.178     -2.69
   H2O             5.551e+01   9.775e-01     1.744    -0.010     0.000     17.95
C(-4)         4.482e-02
   CH4             4.482e-02   4.852e-02    -1.349    -1.314     0.035     32.22
C(4)          9.015e-01
   CO2             5.564e-01   6.024e-01    -0.255    -0.220     0.035     29.71
   HCO3-           3.451e-01   2.468e-01    -0.462    -0.608    -0.146     26.12
   CO3-2           4.338e-05   1.134e-05    -4.363    -4.945    -0.583     -1.75
H(0)          4.894e-10
   H2              2.447e-10   2.650e-10    -9.611    -9.577     0.035     28.54
N(-3)         3.453e-01
   NH4+            3.452e-01   2.175e-01    -0.462    -0.663    -0.201     18.57
   NH3             9.091e-05   9.843e-05    -4.041    -4.007     0.035     24.66
N(0)          5.911e-02
   N2              2.956e-02   3.200e-02    -1.529    -1.495     0.035     29.29
N(3)          0.000e+00
   NO2-            0.000e+00   0.000e+00   -60.040   -60.228    -0.188     25.44
N(5)          0.000e+00
   NO3-            0.000e+00   0.000e+00   -82.233   -82.421    -0.188     29.84
O(0)          0.000e+00
   O2              0.000e+00   0.000e+00   -73.419   -73.384     0.035     30.18

------------------------------Saturation indices-------------------------------

  Phase               SI** log IAP   log K(298 K, 152 atm)

  CH4(g)            1.62     -1.31   -2.93  CH4	 Pressure  54.7 atm, phi 0.754
  CO2(g)            1.32     -0.22   -1.54  CO2	 Pressure  43.3 atm, phi 0.484
  H2(g)            -6.40     -9.58   -3.18  H2
  H2O(g)           -1.46     -0.01    1.45  H2O	 Pressure   0.1 atm, phi 0.446
  N2(g)             1.76     -1.49   -3.25  N2	 Pressure  54.2 atm, phi 1.061
  NH3(g)           -5.74     -4.01    1.73  NH3
  O2(g)           -70.41    -73.38   -2.97  O2

**For a gas, SI = log10(fugacity). Fugacity = pressure * phi / 1 atm.
  For ideal gases, phi = 1.

Reaction step 8.

Using solution 1.	
Using gas phase 1.	
Using reaction 1.	

Reaction 1.	

	  5.000e-01 moles of the following reaction have been added:

	                 Relative
	Reactant            moles

	CO2N2CH4             1.00000

	                 Relative
	Element             moles
	C                    2.00000
	H                    4.00000
	N                    2.00000
	O                    2.00000

-----------------------------------Gas phase-----------------------------------

Total pressure: 178.59      atmospheres          (Peng-Robinson calculation)
    Gas volume:   1.00e+00 liters
  Molar volume:   1.07e-01 liters/mole
   P * Vm / RT:  0.78297  (Compressibility Factor Z) 

                                                        Moles in gas
                                            ----------------------------------
Component         log P           P    phi     Initial       Final       Delta

CH4(g)             1.80   6.364e+01  0.730   2.838e+00   3.322e+00   4.846e-01
CO2(g)             1.71   5.183e+01  0.437   2.246e+00   2.706e+00   4.595e-01
H2O(g)            -1.05   8.903e-02  0.392   3.989e-03   4.648e-03   6.588e-04
N2(g)              1.80   6.302e+01  1.081   2.810e+00   3.290e+00   4.800e-01

-----------------------------Solution composition------------------------------

	Elements           Molality       Moles

	C                 1.004e+00   9.920e-01
	N                 4.452e-01   4.399e-01

----------------------------Description of solution----------------------------

                                       pH  =   5.923      Charge balance
                                       pe  =  -2.753      Adjusted to redox equilibrium
       Specific Conductance (µS/cm, 25°C)  = 34535
                          Density (g/cm³)  =   1.02446
                               Volume (L)  =   1.01955
                        Activity of water  =   0.976
                           Ionic strength  =   3.778e-01
                       Mass of water (kg)  =   9.881e-01
                 Total alkalinity (eq/kg)  =   3.779e-01
                       Total CO2 (mol/kg)  =   9.555e-01
                         Temperature (°C)  =  25.00
                           Pressure (atm)  = 178.59
                  Electrical balance (eq)  =   1.505e-09
 Percent error, 100*(Cat-|An|)/(Cat+|An|)  =   0.00
                               Iterations  =  30
                                  Total H  = 1.117545e+02
                                  Total O  = 5.710995e+01

----------------------------Distribution of species----------------------------

                                               Log       Log       Log    mole V
   Species          Molality    Activity  Molality  Activity     Gamma   cm³/mol

   H+              1.538e-06   1.193e-06    -5.813    -5.923    -0.110      0.00
   OH-             1.462e-08   9.609e-09    -7.835    -8.017    -0.182     -2.54
   H2O             5.551e+01   9.759e-01     1.744    -0.011     0.000     17.93
C(-4)         4.841e-02
   CH4             4.841e-02   5.281e-02    -1.315    -1.277     0.038     32.22
C(4)          9.555e-01
   CO2             5.778e-01   6.303e-01    -0.238    -0.200     0.038     29.81
   HCO3-           3.777e-01   2.682e-01    -0.423    -0.572    -0.149     26.24
   CO3-2           5.071e-05   1.289e-05    -4.295    -4.890    -0.595     -1.43
H(0)          4.802e-10
   H2              2.401e-10   2.619e-10    -9.620    -9.582     0.038     28.52
N(-3)         3.779e-01
   NH4+            3.778e-01   2.348e-01    -0.423    -0.629    -0.207     18.62
   NH3             9.839e-05   1.073e-04    -4.007    -3.969     0.038     24.71
N(0)          6.736e-02
   N2              3.368e-02   3.674e-02    -1.473    -1.435     0.038     29.29
N(3)          0.000e+00
   NO2-            0.000e+00   0.000e+00   -60.000   -60.193    -0.194     25.46
N(5)          0.000e+00
   NO3-            0.000e+00   0.000e+00   -82.196   -82.389    -0.194     29.83
O(0)          0.000e+00
   O2              0.000e+00   0.000e+00   -73.437   -73.399     0.038     30.15

------------------------------Saturation indices-------------------------------

  Phase               SI** log IAP   log K(298 K, 179 atm)

  CH4(g)            1.67     -1.28   -2.94  CH4	 Pressure  63.6 atm, phi 0.730
  CO2(g)            1.35     -0.20   -1.56  CO2	 Pressure  51.8 atm, phi 0.437
  H2(g)            -6.39     -9.58   -3.19  H2
  H2O(g)           -1.46     -0.01    1.45  H2O	 Pressure   0.1 atm, phi 0.392
  N2(g)             1.83     -1.43   -3.27  N2	 Pressure  63.0 atm, phi 1.081
  NH3(g)           -5.69     -3.97    1.72  NH3
  O2(g)           -70.41    -73.40   -2.99  O2

**For a gas, SI = log10(fugacity). Fugacity = pressure * phi / 1 atm.
  For ideal gases, phi = 1.

Reaction step 9.

Using solution 1.	
Using gas phase 1.	
Using reaction 1.	

Reaction 1.	

	  5.000e-01 moles of the following reaction have been added:

	                 Relative
	Reactant            moles

	CO2N2CH4             1.00000

	                 Relative
	Element             moles
	C                    2.00000
	H                    4.00000
	N                    2.00000
	O                    2.00000

-----------------------------------Gas phase-----------------------------------

Total pressure: 207.33      atmospheres          (Peng-Robinson calculation)
    Gas volume:   1.00e+00 liters
  Molar volume:   9.30e-02 liters/mole
   P * Vm / RT:  0.78798  (Compressibility Factor Z) 

                                                        Moles in gas
                                            ----------------------------------
Component         log P           P    phi     Initial       Final       Delta

CH4(g)             1.87   7.339e+01  0.709   3.322e+00   3.807e+00   4.848e-01
CO2(g)             1.79   6.115e+01  0.397   2.706e+00   3.172e+00   4.662e-01
H2O(g)            -0.99   1.030e-01  0.346   4.648e-03   5.343e-03   6.949e-04
N2(g)              1.86   7.268e+01  1.101   3.290e+00   3.770e+00   4.800e-01

-----------------------------Solution composition------------------------------

	Elements           Molality       Moles

	C                 1.055e+00   1.041e+00
	N                 4.861e-01   4.799e-01

----------------------------Description of solution----------------------------

                                       pH  =   5.932      Charge balance
                                       pe  =  -2.766      Adjusted to redox equilibrium
       Specific Conductance (µS/cm, 25°C)  = 36851
                          Density (g/cm³)  =   1.02673
                               Volume (L)  =   1.01951
                        Activity of water  =   0.974
                           Ionic strength  =   4.102e-01
                       Mass of water (kg)  =   9.871e-01
                 Total alkalinity (eq/kg)  =   4.102e-01
                       Total CO2 (mol/kg)  =   1.003e+00
                         Temperature (°C)  =  25.00
                           Pressure (atm)  = 207.33
                  Electrical balance (eq)  =   3.463e-09
 Percent error, 100*(Cat-|An|)/(Cat+|An|)  =   0.00
                               Iterations  =  31
                                  Total H  = 1.118138e+02
                                  Total O  = 5.717684e+01

----------------------------Distribution of species----------------------------

                                               Log       Log       Log    mole V
   Species          Molality    Activity  Molality  Activity     Gamma   cm³/mol

   H+              1.513e-06   1.169e-06    -5.820    -5.932    -0.112      0.00
   OH-             1.537e-08   1.001e-08    -7.813    -8.000    -0.186     -2.39
   H2O             5.551e+01   9.745e-01     1.744    -0.011     0.000     17.90
C(-4)         5.183e-02
   CH4             5.183e-02   5.696e-02    -1.285    -1.244     0.041     32.22
C(4)          1.003e+00
   CO2             5.927e-01   6.514e-01    -0.227    -0.186     0.041     29.92
   HCO3-           4.100e-01   2.893e-01    -0.387    -0.539    -0.151     26.36
   CO3-2           5.900e-05   1.463e-05    -4.229    -4.835    -0.606     -1.09
H(0)          4.707e-10
   H2              2.353e-10   2.586e-10    -9.628    -9.587     0.041     28.51
N(-3)         4.102e-01
   NH4+            4.101e-01   2.517e-01    -0.387    -0.599    -0.212     18.68
   NH3             1.061e-04   1.166e-04    -3.974    -3.933     0.041     24.75
N(0)          7.589e-02
   N2              3.794e-02   4.170e-02    -1.421    -1.380     0.041     29.29
N(3)          0.000e+00
   NO2-            0.000e+00   0.000e+00   -59.961   -60.160    -0.198     25.47
N(5)          0.000e+00
   NO3-            0.000e+00   0.000e+00   -82.160   -82.358    -0.198     29.82
O(0)          0.000e+00
   O2              0.000e+00   0.000e+00   -73.457   -73.416     0.041     30.11

------------------------------Saturation indices-------------------------------

  Phase               SI** log IAP   log K(298 K, 207 atm)

  CH4(g)            1.72     -1.24   -2.96  CH4	 Pressure  73.4 atm, phi 0.709
  CO2(g)            1.38     -0.19   -1.57  CO2	 Pressure  61.2 atm, phi 0.397
  H2(g)            -6.38     -9.59   -3.21  H2
  H2O(g)           -1.45     -0.01    1.44  H2O	 Pressure   0.1 atm, phi 0.346
  N2(g)             1.90     -1.38   -3.28  N2	 Pressure  72.7 atm, phi 1.101
  NH3(g)           -5.64     -3.93    1.71  NH3
  O2(g)           -70.41    -73.42   -3.00  O2

**For a gas, SI = log10(fugacity). Fugacity = pressure * phi / 1 atm.
  For ideal gases, phi = 1.

Reaction step 10.

Using solution 1.	
Using gas phase 1.	
Using reaction 1.	

Reaction 1.	

	  5.000e-01 moles of the following reaction have been added:

	                 Relative
	Reactant            moles

	CO2N2CH4             1.00000

	                 Relative
	Element             moles
	C                    2.00000
	H                    4.00000
	N                    2.00000
	O                    2.00000

-----------------------------------Gas phase-----------------------------------

Total pressure: 239.58      atmospheres          (Peng-Robinson calculation)
    Gas volume:   1.00e+00 liters
  Molar volume:   8.20e-02 liters/mole
   P * Vm / RT:  0.80341  (Compressibility Factor Z) 

                                                        Moles in gas
                                            ----------------------------------
Component         log P           P    phi     Initial       Final       Delta

CH4(g)             1.93   8.435e+01  0.691   3.807e+00   4.291e+00   4.844e-01
CO2(g)             1.85   7.158e+01  0.362   3.172e+00   3.642e+00   4.696e-01
H2O(g)            -0.92   1.191e-01  0.306   5.343e-03   6.059e-03   7.169e-04
N2(g)              1.92   8.353e+01  1.122   3.770e+00   4.249e+00   4.792e-01

-----------------------------Solution composition------------------------------

	Elements           Molality       Moles

	C                 1.102e+00   1.087e+00
	N                 5.288e-01   5.214e-01

----------------------------Description of solution----------------------------

                                       pH  =   5.941      Charge balance
                                       pe  =  -2.780      Adjusted to redox equilibrium
       Specific Conductance (µS/cm, 25°C)  = 39184
                          Density (g/cm³)  =   1.02910
                               Volume (L)  =   1.01926
                        Activity of water  =   0.973
                           Ionic strength  =   4.439e-01
                       Mass of water (kg)  =   9.861e-01
                 Total alkalinity (eq/kg)  =   4.439e-01
                       Total CO2 (mol/kg)  =   1.047e+00
                         Temperature (°C)  =  25.00
                           Pressure (atm)  = 239.58
                  Electrical balance (eq)  =   5.727e-09
 Percent error, 100*(Cat-|An|)/(Cat+|An|)  =   0.00
                               Iterations  =  34
                                  Total H  = 1.118747e+02
                                  Total O  = 5.723688e+01

----------------------------Distribution of species----------------------------

                                               Log       Log       Log    mole V
   Species          Molality    Activity  Molality  Activity     Gamma   cm³/mol

   H+              1.486e-06   1.145e-06    -5.828    -5.941    -0.113      0.00
   OH-             1.621e-08   1.046e-08    -7.790    -7.980    -0.190     -2.23
   H2O             5.551e+01   9.730e-01     1.744    -0.012     0.000     17.88
C(-4)         5.520e-02
   CH4             5.520e-02   6.114e-02    -1.258    -1.214     0.044     32.22
C(4)          1.047e+00
   CO2             6.033e-01   6.683e-01    -0.219    -0.175     0.044     30.04
   HCO3-           4.437e-01   3.112e-01    -0.353    -0.507    -0.154     26.49
   CO3-2           6.864e-05   1.662e-05    -4.163    -4.779    -0.616     -0.74
H(0)          4.602e-10
   H2              2.301e-10   2.549e-10    -9.638    -9.594     0.044     28.50
N(-3)         4.439e-01
   NH4+            4.438e-01   2.692e-01    -0.353    -0.570    -0.217     18.74
   NH3             1.140e-04   1.263e-04    -3.943    -3.899     0.044     24.80
N(0)          8.485e-02
   N2              4.243e-02   4.699e-02    -1.372    -1.328     0.044     29.29
N(3)          0.000e+00
   NO2-            0.000e+00   0.000e+00   -59.924   -60.127    -0.203     25.48
N(5)          0.000e+00
   NO3-            0.000e+00   0.000e+00   -82.125   -82.328    -0.203     29.81
O(0)          0.000e+00
   O2              0.000e+00   0.000e+00   -73.478   -73.434     0.044     30.07

------------------------------Saturation indices-------------------------------

  Phase               SI** log IAP   log K(298 K, 240 atm)

  CH4(g)            1.77     -1.21   -2.98  CH4	 Pressure  84.4 atm, phi 0.691
  CO2(g)            1.41     -0.18   -1.59  CO2	 Pressure  71.6 atm, phi 0.362
  H2(g)            -6.37     -9.59   -3.22  H2
  H2O(g)           -1.44     -0.01    1.43  H2O	 Pressure   0.1 atm, phi 0.306
  N2(g)             1.97     -1.33   -3.30  N2	 Pressure  83.5 atm, phi 1.122
  NH3(g)           -5.59     -3.90    1.69  NH3
  O2(g)           -70.41    -73.43   -3.02  O2

**For a gas, SI = log10(fugacity). Fugacity = pressure * phi / 1 atm.
  For ideal gases, phi = 1.

Reaction step 11.

Using solution 1.	
Using gas phase 1.	
Using reaction 1.	

Reaction 1.	

	  5.000e-01 moles of the following reaction have been added:

	                 Relative
	Reactant            moles

	CO2N2CH4             1.00000

	                 Relative
	Element             moles
	C                    2.00000
	H                    4.00000
	N                    2.00000
	O                    2.00000

-----------------------------------Gas phase-----------------------------------

Total pressure: 276.57      atmospheres          (Peng-Robinson calculation)
    Gas volume:   1.00e+00 liters
  Molar volume:   7.34e-02 liters/mole
   P * Vm / RT:  0.82993  (Compressibility Factor Z) 

                                                        Moles in gas
                                            ----------------------------------
Component         log P           P    phi     Initial       Final       Delta

CH4(g)             1.99   9.695e+01  0.676   4.291e+00   4.775e+00   4.834e-01
CO2(g)             1.92   8.350e+01  0.332   3.642e+00   4.112e+00   4.706e-01
H2O(g)            -0.86   1.377e-01  0.271   6.059e-03   6.782e-03   7.230e-04
N2(g)              1.98   9.598e+01  1.145   4.249e+00   4.727e+00   4.777e-01

-----------------------------Solution composition------------------------------

	Elements           Molality       Moles

	C                 1.150e+00   1.133e+00
	N                 5.747e-01   5.660e-01

----------------------------Description of solution----------------------------

                                       pH  =   5.950      Charge balance
                                       pe  =  -2.794      Adjusted to redox equilibrium
       Specific Conductance (µS/cm, 25°C)  = 41622
                          Density (g/cm³)  =   1.03168
                               Volume (L)  =   1.01882
                        Activity of water  =   0.971
                           Ionic strength  =   4.803e-01
                       Mass of water (kg)  =   9.850e-01
                 Total alkalinity (eq/kg)  =   4.803e-01
                       Total CO2 (mol/kg)  =   1.092e+00
                         Temperature (°C)  =  25.00
                           Pressure (atm)  = 276.57
                  Electrical balance (eq)  =   6.477e-09
 Percent error, 100*(Cat-|An|)/(Cat+|An|)  =   0.00
                               Iterations  =  41
                                  Total H  = 1.119394e+02
                                  Total O  = 5.729492e+01

----------------------------Distribution of species----------------------------

                                               Log       Log       Log    mole V
   Species          Molality    Activity  Molality  Activity     Gamma   cm³/mol

   H+              1.460e-06   1.122e-06    -5.836    -5.950    -0.114      0.00
   OH-             1.715e-08   1.097e-08    -7.766    -7.960    -0.194     -2.05
   H2O             5.551e+01   9.715e-01     1.744    -0.013     0.000     17.85
C(-4)         5.862e-02
   CH4             5.862e-02   6.547e-02    -1.232    -1.184     0.048     32.22
C(4)          1.092e+00
   CO2             6.115e-01   6.830e-01    -0.214    -0.166     0.048     30.18
   HCO3-           4.800e-01   3.348e-01    -0.319    -0.475    -0.157     26.62
   CO3-2           8.016e-05   1.896e-05    -4.096    -4.722    -0.626     -0.35
H(0)          4.481e-10
   H2              2.241e-10   2.503e-10    -9.650    -9.602     0.048     28.48
N(-3)         4.803e-01
   NH4+            4.802e-01   2.878e-01    -0.319    -0.541    -0.222     18.80
   NH3             1.223e-04   1.366e-04    -3.913    -3.865     0.048     24.85
N(0)          9.438e-02
   N2              4.719e-02   5.271e-02    -1.326    -1.278     0.048     29.29
N(3)          0.000e+00
   NO2-            0.000e+00   0.000e+00   -59.887   -60.094    -0.207     25.50
N(5)          0.000e+00
   NO3-            0.000e+00   0.000e+00   -82.091   -82.298    -0.207     29.79
O(0)          0.000e+00
   O2              0.000e+00   0.000e+00   -73.501   -73.453     0.048     30.02

------------------------------Saturation indices-------------------------------

  Phase               SI** log IAP   log K(298 K, 277 atm)

  CH4(g)            1.82     -1.18   -3.00  CH4	 Pressure  97.0 atm, phi 0.676
  CO2(g)            1.44     -0.17   -1.61  CO2	 Pressure  83.5 atm, phi 0.332
  H2(g)            -6.36     -9.60   -3.24  H2
  H2O(g)           -1.43     -0.01    1.42  H2O	 Pressure   0.1 atm, phi 0.271
  N2(g)             2.04     -1.28   -3.32  N2	 Pressure  96.0 atm, phi 1.145
  NH3(g)           -5.54     -3.86    1.67  NH3
  O2(g)           -70.41    -73.45   -3.04  O2

**For a gas, SI = log10(fugacity). Fugacity = pressure * phi / 1 atm.
  For ideal gases, phi = 1.

Reaction step 12.

Using solution 1.	
Using gas phase 1.	
Using reaction 1.	

Reaction 1.	

	  5.000e-01 moles of the following reaction have been added:

	                 Relative
	Reactant            moles

	CO2N2CH4             1.00000

	                 Relative
	Element             moles
	C                    2.00000
	H                    4.00000
	N                    2.00000
	O                    2.00000

-----------------------------------Gas phase-----------------------------------

Total pressure: 319.75      atmospheres          (Peng-Robinson calculation)
    Gas volume:   1.00e+00 liters
  Molar volume:   6.65e-02 liters/mole
   P * Vm / RT:  0.86847  (Compressibility Factor Z) 

                                                        Moles in gas
                                            ----------------------------------
Component         log P           P    phi     Initial       Final       Delta

CH4(g)             2.05   1.117e+02  0.665   4.775e+00   5.257e+00   4.819e-01
CO2(g)             1.99   9.736e+01  0.307   4.112e+00   4.582e+00   4.698e-01
H2O(g)            -0.80   1.592e-01  0.241   6.782e-03   7.494e-03   7.113e-04
N2(g)              2.04   1.105e+02  1.171   4.727e+00   5.202e+00   4.754e-01

-----------------------------Solution composition------------------------------

	Elements           Molality       Moles

	C                 1.201e+00   1.181e+00
	N                 6.254e-01   6.152e-01

----------------------------Description of solution----------------------------

                                       pH  =   5.959      Charge balance
                                       pe  =  -2.808      Adjusted to redox equilibrium
       Specific Conductance (µS/cm, 25°C)  = 44243
                          Density (g/cm³)  =   1.03456
                               Volume (L)  =   1.01820
                        Activity of water  =   0.970
                           Ionic strength  =   5.208e-01
                       Mass of water (kg)  =   9.837e-01
                 Total alkalinity (eq/kg)  =   5.208e-01
                       Total CO2 (mol/kg)  =   1.139e+00
                         Temperature (°C)  =  25.00
                           Pressure (atm)  = 319.75
                  Electrical balance (eq)  =   6.941e-09
 Percent error, 100*(Cat-|An|)/(Cat+|An|)  =   0.00
                               Iterations  =  61
                                  Total H  = 1.120104e+02
                                  Total O  = 5.735464e+01

----------------------------Distribution of species----------------------------

                                               Log       Log       Log    mole V
   Species          Molality    Activity  Molality  Activity     Gamma   cm³/mol

   H+              1.436e-06   1.100e-06    -5.843    -5.959    -0.116      0.00
   OH-             1.819e-08   1.153e-08    -7.740    -7.938    -0.198     -1.85
   H2O             5.551e+01   9.698e-01     1.744    -0.013     0.000     17.82
C(-4)         6.214e-02
   CH4             6.214e-02   7.005e-02    -1.207    -1.155     0.052     32.22
C(4)          1.139e+00
   CO2             6.180e-01   6.968e-01    -0.209    -0.157     0.052     30.33
   HCO3-           5.205e-01   3.609e-01    -0.284    -0.443    -0.159     26.77
   CO3-2           9.422e-05   2.178e-05    -4.026    -4.662    -0.636      0.08
H(0)          4.338e-10
   H2              2.169e-10   2.446e-10    -9.664    -9.612     0.052     28.47
N(-3)         5.208e-01
   NH4+            5.207e-01   3.083e-01    -0.283    -0.511    -0.228     18.88
   NH3             1.309e-04   1.476e-04    -3.883    -3.831     0.052     24.92
N(0)          1.046e-01
   N2              5.229e-02   5.895e-02    -1.282    -1.230     0.052     29.29
N(3)          0.000e+00
   NO2-            0.000e+00   0.000e+00   -59.850   -60.062    -0.212     25.51
N(5)          0.000e+00
   NO3-            0.000e+00   0.000e+00   -82.056   -82.268    -0.212     29.77
O(0)          0.000e+00
   O2              0.000e+00   0.000e+00   -73.526   -73.473     0.052     29.97

------------------------------Saturation indices-------------------------------

  Phase               SI** log IAP   log K(298 K, 320 atm)

  CH4(g)            1.87     -1.15   -3.03  CH4	 Pressure 111.7 atm, phi 0.665
  CO2(g)            1.48     -0.16   -1.63  CO2	 Pressure  97.4 atm, phi 0.307
  H2(g)            -6.35     -9.61   -3.26  H2
  H2O(g)           -1.42     -0.01    1.40  H2O	 Pressure   0.2 atm, phi 0.241
  N2(g)             2.11     -1.23   -3.34  N2	 Pressure 110.5 atm, phi 1.171
  NH3(g)           -5.49     -3.83    1.66  NH3
  O2(g)           -70.41    -73.47   -3.06  O2

**For a gas, SI = log10(fugacity). Fugacity = pressure * phi / 1 atm.
  For ideal gases, phi = 1.

Reaction step 13.

Using solution 1.	
Using gas phase 1.	
Using reaction 1.	

Reaction 1.	

	  5.000e-01 moles of the following reaction have been added:

	                 Relative
	Reactant            moles

	CO2N2CH4             1.00000

	                 Relative
	Element             moles
	C                    2.00000
	H                    4.00000
	N                    2.00000
	O                    2.00000

-----------------------------------Gas phase-----------------------------------

Total pressure: 370.81      atmospheres          (Peng-Robinson calculation)
    Gas volume:   1.00e+00 liters
  Molar volume:   6.07e-02 liters/mole
   P * Vm / RT:  0.92029  (Compressibility Factor Z) 

                                                        Moles in gas
                                            ----------------------------------
Component         log P           P    phi     Initial       Final       Delta

CH4(g)             2.11   1.292e+02  0.658   5.257e+00   5.736e+00   4.797e-01
CO2(g)             2.06   1.137e+02  0.287   4.582e+00   5.050e+00   4.675e-01
H2O(g)            -0.74   1.840e-01  0.216   7.494e-03   8.174e-03   6.800e-04
N2(g)              2.11   1.278e+02  1.202   5.202e+00   5.675e+00   4.724e-01

-----------------------------Solution composition------------------------------

	Elements           Molality       Moles

	C                 1.256e+00   1.234e+00
	N                 6.826e-01   6.705e-01

----------------------------Description of solution----------------------------

                                       pH  =   5.966      Charge balance
                                       pe  =  -2.822      Adjusted to redox equilibrium
       Specific Conductance (µS/cm, 25°C)  = 47122
                          Density (g/cm³)  =   1.03786
                               Volume (L)  =   1.01739
                        Activity of water  =   0.968
                           Ionic strength  =   5.670e-01
                       Mass of water (kg)  =   9.823e-01
                 Total alkalinity (eq/kg)  =   5.671e-01
                       Total CO2 (mol/kg)  =   1.190e+00
                         Temperature (°C)  =  25.00
                           Pressure (atm)  = 370.81
                  Electrical balance (eq)  =   7.232e-09
 Percent error, 100*(Cat-|An|)/(Cat+|An|)  =   0.00
                               Iterations  =  69
                                  Total H  = 1.120901e+02
                                  Total O  = 5.741894e+01

----------------------------Distribution of species----------------------------

                                               Log       Log       Log    mole V
   Species          Molality    Activity  Molality  Activity     Gamma   cm³/mol

   H+              1.416e-06   1.081e-06    -5.849    -5.966    -0.117      0.00
   OH-             1.936e-08   1.215e-08    -7.713    -7.915    -0.202     -1.63
   H2O             5.551e+01   9.680e-01     1.744    -0.014     0.000     17.78
C(-4)         6.579e-02
   CH4             6.579e-02   7.497e-02    -1.182    -1.125     0.057     32.22
C(4)          1.190e+00
   CO2             6.236e-01   7.106e-01    -0.205    -0.148     0.057     30.50
   HCO3-           5.667e-01   3.906e-01    -0.247    -0.408    -0.162     26.94
   CO3-2           1.118e-04   2.523e-05    -3.952    -4.598    -0.646      0.58
H(0)          4.168e-10
   H2              2.084e-10   2.375e-10    -9.681    -9.624     0.057     28.45
N(-3)         5.671e-01
   NH4+            5.669e-01   3.314e-01    -0.246    -0.480    -0.233     18.96
   NH3             1.399e-04   1.594e-04    -3.854    -3.797     0.057     24.99
N(0)          1.155e-01
   N2              5.775e-02   6.581e-02    -1.238    -1.182     0.057     29.29
N(3)          0.000e+00
   NO2-            0.000e+00   0.000e+00   -59.813   -60.030    -0.217     25.53
N(5)          0.000e+00
   NO3-            0.000e+00   0.000e+00   -82.020   -82.237    -0.217     29.74
O(0)          0.000e+00
   O2              0.000e+00   0.000e+00   -73.553   -73.496     0.057     29.91

------------------------------Saturation indices-------------------------------

  Phase               SI** log IAP   log K(298 K, 371 atm)

  CH4(g)            1.93     -1.13   -3.05  CH4	 Pressure 129.2 atm, phi 0.658
  CO2(g)            1.51     -0.15   -1.66  CO2	 Pressure 113.7 atm, phi 0.287
  H2(g)            -6.34     -9.62   -3.29  H2
  H2O(g)           -1.40     -0.01    1.39  H2O	 Pressure   0.2 atm, phi 0.216
  N2(g)             2.19     -1.18   -3.37  N2	 Pressure 127.8 atm, phi 1.202
  NH3(g)           -5.43     -3.80    1.63  NH3
  O2(g)           -70.41    -73.50   -3.09  O2

**For a gas, SI = log10(fugacity). Fugacity = pressure * phi / 1 atm.
  For ideal gases, phi = 1.

Reaction step 14.

Using solution 1.	
Using gas phase 1.	
Using reaction 1.	

Reaction 1.	

	  5.000e-01 moles of the following reaction have been added:

	                 Relative
	Reactant            moles

	CO2N2CH4             1.00000

	                 Relative
	Element             moles
	C                    2.00000
	H                    4.00000
	N                    2.00000
	O                    2.00000

-----------------------------------Gas phase-----------------------------------

Total pressure: 431.77      atmospheres          (Peng-Robinson calculation)
    Gas volume:   1.00e+00 liters
  Molar volume:   5.59e-02 liters/mole
   P * Vm / RT:  0.98707  (Compressibility Factor Z) 

                                                        Moles in gas
                                            ----------------------------------
Component         log P           P    phi     Initial       Final       Delta

CH4(g)             2.18   1.501e+02  0.657   5.736e+00   6.213e+00   4.769e-01
CO2(g)             2.12   1.332e+02  0.270   5.050e+00   5.514e+00   4.640e-01
H2O(g)            -0.67   2.125e-01  0.195   8.174e-03   8.801e-03   6.276e-04
N2(g)              2.17   1.484e+02  1.242   5.675e+00   6.143e+00   4.684e-01

-----------------------------Solution composition------------------------------

	Elements           Molality       Moles

	C                 1.319e+00   1.293e+00
	N                 7.482e-01   7.337e-01

----------------------------Description of solution----------------------------

                                       pH  =   5.972      Charge balance
                                       pe  =  -2.836      Adjusted to redox equilibrium
       Specific Conductance (µS/cm, 25°C)  = 50336
                          Density (g/cm³)  =   1.04167
                               Volume (L)  =   1.01638
                        Activity of water  =   0.966
                           Ionic strength  =   6.209e-01
                       Mass of water (kg)  =   9.806e-01
                 Total alkalinity (eq/kg)  =   6.209e-01
                       Total CO2 (mol/kg)  =   1.249e+00
                         Temperature (°C)  =  25.00
                           Pressure (atm)  = 431.77
                  Electrical balance (eq)  =   7.443e-09
 Percent error, 100*(Cat-|An|)/(Cat+|An|)  =   0.00
                               Iterations  =  78
                                  Total H  = 1.121812e+02
                                  Total O  = 5.749027e+01

----------------------------Distribution of species----------------------------

                                               Log       Log       Log    mole V
   Species          Molality    Activity  Molality  Activity     Gamma   cm³/mol

   H+              1.400e-06   1.066e-06    -5.854    -5.972    -0.118      0.00
   OH-             2.066e-08   1.284e-08    -7.685    -7.891    -0.207     -1.37
   H2O             5.551e+01   9.659e-01     1.744    -0.015     0.000     17.73
C(-4)         6.959e-02
   CH4             6.959e-02   8.029e-02    -1.157    -1.095     0.062     32.22
C(4)          1.249e+00
   CO2             6.283e-01   7.248e-01    -0.202    -0.140     0.062     30.70
   HCO3-           6.205e-01   4.251e-01    -0.207    -0.372    -0.164     27.14
   CO3-2           1.342e-04   2.956e-05    -3.872    -4.529    -0.657      1.14
H(0)          3.965e-10
   H2              1.983e-10   2.287e-10    -9.703    -9.641     0.062     28.43
N(-3)         6.209e-01
   NH4+            6.208e-01   3.579e-01    -0.207    -0.446    -0.239     19.06
   NH3             1.492e-04   1.722e-04    -3.826    -3.764     0.062     25.07
N(0)          1.272e-01
   N2              6.361e-02   7.338e-02    -1.196    -1.134     0.062     29.29
N(3)          0.000e+00
   NO2-            0.000e+00   0.000e+00   -59.775   -59.997    -0.222     25.54
N(5)          0.000e+00
   NO3-            0.000e+00   0.000e+00   -81.984   -82.205    -0.222     29.71
O(0)          0.000e+00
   O2              0.000e+00   0.000e+00   -73.583   -73.520     0.062     29.84

------------------------------Saturation indices-------------------------------

  Phase               SI** log IAP   log K(298 K, 432 atm)

  CH4(g)            1.99     -1.10   -3.09  CH4	 Pressure 150.1 atm, phi 0.657
  CO2(g)            1.56     -0.14   -1.70  CO2	 Pressure 133.2 atm, phi 0.270
  H2(g)            -6.32     -9.64   -3.32  H2
  H2O(g)           -1.38     -0.02    1.37  H2O	 Pressure   0.2 atm, phi 0.195
  N2(g)             2.27     -1.13   -3.40  N2	 Pressure 148.4 atm, phi 1.242
  NH3(g)           -5.37     -3.76    1.60  NH3
  O2(g)           -70.40    -73.52   -3.12  O2

**For a gas, SI = log10(fugacity). Fugacity = pressure * phi / 1 atm.
  For ideal gases, phi = 1.

------------------
End of simulation.
------------------

------------------------------------
Reading input data for simulation 2.
------------------------------------

------------------------------
End of Run after 0.03 Seconds.
------------------------------

