   Input file: PR_mx_new
  Output file: PR_mx_new.out
Database file: ../database/Amm.dat

------------------
Reading data base.
------------------

	SOLUTION_MASTER_SPECIES
	SOLUTION_SPECIES
	PHASES
	EXCHANGE_MASTER_SPECIES
	EXCHANGE_SPECIES
	SURFACE_MASTER_SPECIES
	SURFACE_SPECIES
	END
------------------------------------
Reading input data for simulation 1.
------------------------------------

	database ../database/Amm.dat
	SOLUTION 1
	PHASES
	Amm(g)
		Amm = Amm
		log_k	   1.7966
		analytical_expression -1.8758e+001 3.3670e-004 2.5113e+003 4.8619e+000 3.9192e+001
		t_c  405.6 # critical T, K
		p_c   111.3 # critical P, atm
		omega 0.25 #  acentric factor
		delta_v 30 # (estimated, not checked)
	CH4(g)
		CH4 = CH4
		log_k	   -2.8502
		analytical_expression -2.4027e+001 4.7146e-003 3.7227e+002 6.4264e+000 2.3362e+005
		T_c  190.6 # critical T, K
		p_c   45.40 # critical P, atm
		omega 0.008 #  acentric factor
		delta_v 33 # + temperature and pressure terms
	CO2(g)
		CO2 = CO2
		log_k	-1.468
		delta_h  -4.776 kcal
		analytical_expression	108.3865	0.01985076	-6919.53	-40.45154	669365.0
		t_c  304.2 # critical T, K
		p_c   72.80 # critical P, atm
		omega 0.225 #  acentric factor
		delta_v   28
	H2(g)
		H2 = H2
		log_k	   -3.1050
		delta_h -4.184  kJ
		analytical_expression   -9.3114e+000    4.6473e-003   -4.9335e+001    1.4341e+000    1.2815e+005
		t_c  33.2 # critical T, K
		p_c   12.80 # critical P, atm
		omega 0.225 #  acentric factor
		delta_v 30 # (estimated, not checked)
	H2O(g)
		H2O = H2O
		log_k  1.506
	 delta_h -44.03 kJ
		T_c  647.3 # critical T, K
		p_c  217.60 # critical P, atm
		omega 0.344 #  acentric factor
		delta_v 0e-4 # + temperature and pressure terms
	H2S(g)
		H2S  =  H+ + HS-
		log_k	   -7.9759
		analytical_expression -9.7354e+001 -3.1576e-002 1.8285e+003 3.7440e+001 2.8560e+001
		T_c  373.2 # critical T, K
		p_c  88.20 # critical P, atm
		omega 0.1 #  acentric factor
		delta_v 30 # + temperature and pressure terms
	N2(g)
		N2 = N2
		log_k		 -3.1864
		analytical_expression -58.453 1.81800E-03  3199  17.909 -27460
		T_c  126.2 # critical T, K
		p_c   33.50 # critical P, atm
		omega 0.039 #  acentric factor
		delta_v 30 # + temperature and pressure terms
	O2(g)
		O2 = O2
		log_k   -2.8983
		analytical_expression -7.5001 7.8981e-003 0.0 0.0 2.0027e+005
		T_c  154.6 # critical T, K
		p_c   49.80 # critical P, atm
		omega 0.021 #  acentric factor
		delta_v 35 # + temperature and pressure terms
	GAS_PHASE 1
	 fixed_volume
	 CH4(g) 0
	 CO2(g) 0
	 N2(g) 0
	 H2O(g) 0
	REACTION 1
	 CO2N2CH4 1
	 0.01 2*0.5 11*0.5
	INCREMENTAL_REACTIONS true
	USER_GRAPH 1 fugacity coeff's
	 -headings P f_H2O f_CO2 f_N2 f_CH4 sys_C sys_N
	 -axis_titles "Total Pressure / atm" "PR fugacity coefficient" "mol"
	 -axis_scale x_axis 0 500
	 10 x = gas_p
	 12 if x > 500 then goto 400
	 20 graph_x x
	 30 graph_y pr_phi("H2O(g)"), pr_phi("CO2(g)"), pr_phi("N2(g)"), pr_phi("CH4(g)")
	 40 graph_sy sys("C"), sys("N")
	400 end
	USER_GRAPH 2 Gas pressures
	 -headings P P_H2O P_CO2 P_N2 P_CH4 m_CO2 m_N2 m_CH4
	 -axis_titles "Total Pressure / atm" "(individual) Gas Pressure / atm" "mol/L"
	 -axis_scale x_axis 0 500
	 10 x = gas_p
	 12 if x > 500 then goto 400
	 20 graph_x x
	 30 graph_y pr_p("H2O(g)"), pr_p("CO2(g)"), pr_p("N2(g)"), pr_p("CH4(g)")
	 40 graph_sy tot("C(4)"), tot("N(0)"), tot("C(-4)")
	400 print 'temp (oC) = ', trim(str$(tc)), '. step ', trim(str$(step_no))
	404 mol_gas = gas("H2O(g)") + gas("CO2(g)") + gas("N2(g)") + gas("CH4(g)")
	410 print 'P = ', str$(x), 'V_m = ', 1 / mol_gas, ' z = P * V_m / (R * TK) = ', x / (mol_gas * 0.0820575 * TK)
	430 print '  fugacities:     f_H2O = ', pr_phi("H2O(g)"), 'f_CO2 =', pr_phi("CO2(g)"), 'f_N2 =', pr_phi("N2(g)"), 'f_CH4 =', pr_phi("CH4(g)")
	420 print '  moles in gas:   m_H2O = ', gas("H2O(g)"), 'm_CO2 =', gas("CO2(g)"), 'm_N2 =', gas("N2(g)"), 'm_CH4 =', gas("CH4(g)")
	440 end
	PRINT
	 reset false
