   Input file: precipitate_only
  Output file: precipitate_only.out
Database file: ../database/phreeqc.dat

------------------
Reading data base.
------------------

	SOLUTION_MASTER_SPECIES
	SOLUTION_SPECIES
	PHASES
	EXCHANGE_MASTER_SPECIES
	EXCHANGE_SPECIES
	SURFACE_MASTER_SPECIES
	SURFACE_SPECIES
	RATES
	END
------------------------------------
Reading input data for simulation 1.
------------------------------------

	DATABASE ../database/phreeqc.dat
	SOLUTION
	EQUILIBRIUM_PHASES
		Calcite	0	10 preciptate_only
	REACTION
		CaCO3 1
		20 mmol
	SAVE solution 2
	SAVE equilibrium_phases 1
	END
-------------------------------------------
Beginning of initial solution calculations.
-------------------------------------------

Initial solution 1.	

-----------------------------Solution composition------------------------------

	Elements           Molality       Moles

	Pure water     

----------------------------Description of solution----------------------------

                                       pH  =   7.000    
                                       pe  =   4.000    
       Specific Conductance (uS/cm, 25 oC) = 0
                          Density (g/cm3)  =   0.99704
                               Volume (L)  =   1.00297
                        Activity of water  =   1.000
                           Ionic strength  =   1.007e-07
                       Mass of water (kg)  =   1.000e+00
                 Total alkalinity (eq/kg)  =   1.217e-09
                    Total carbon (mol/kg)  =   0.000e+00
                       Total CO2 (mol/kg)  =   0.000e+00
                      Temperature (deg C)  =  25.00
                  Electrical balance (eq)  =  -1.217e-09
 Percent error, 100*(Cat-|An|)/(Cat+|An|)  =  -0.60
                               Iterations  =   0
                                  Total H  = 1.110124e+02
                                  Total O  = 5.550622e+01

----------------------------Distribution of species----------------------------

                                               Log       Log       Log    mole V
   Species          Molality    Activity  Molality  Activity     Gamma   cm3/mol

   OH-             1.013e-07   1.012e-07    -6.995    -6.995    -0.000     -4.14
   H+              1.001e-07   1.000e-07    -7.000    -7.000    -0.000      0.00
   H2O             5.551e+01   1.000e+00     1.744     0.000     0.000     18.07
H(0)          1.416e-25
   H2              7.079e-26   7.079e-26   -25.150   -25.150     0.000     28.61
O(0)          0.000e+00
   O2              0.000e+00   0.000e+00   -42.080   -42.080     0.000     30.40

------------------------------Saturation indices-------------------------------

	Phase               SI   log IAP   log K(298 K,   1 atm)

	H2(g)           -22.05    -25.15   -3.10  H2
	H2O(g)           -1.50      0.00    1.50  H2O
	O2(g)           -39.19    -42.08   -2.89  O2


-----------------------------------------
Beginning of batch-reaction calculations.
-----------------------------------------

Reaction step 1.

Using solution 1.	
Using pure phase assemblage 1.	
Using reaction 1.	

Reaction 1.	

	  2.000e-02 moles of the following reaction have been added:

	                 Relative
	Reactant            moles

	CaCO3                1.00000

	                 Relative
	Element             moles
	C                    1.00000
	Ca                   1.00000
	O                    3.00000

-------------------------------Phase assemblage--------------------------------

                                                      Moles in assemblage
Phase               SI  log IAP  log K(T, P)   Initial       Final       Delta

Calcite           0.00    -8.48     -8.48    1.000e+01   1.002e+01   1.988e-02

-----------------------------Solution composition------------------------------

	Elements           Molality       Moles

	C                 1.230e-04   1.230e-04
	Ca                1.230e-04   1.230e-04

----------------------------Description of solution----------------------------

                                       pH  =   9.907      Charge balance
                                       pe  =   7.963      Adjusted to redox equilibrium
       Specific Conductance (uS/cm, 25 oC) = 38
                          Density (g/cm3)  =   0.99706
                               Volume (L)  =   1.00297
                        Activity of water  =   1.000
                           Ionic strength  =   3.856e-04
                       Mass of water (kg)  =   1.000e+00
                 Total alkalinity (eq/kg)  =   2.460e-04
                       Total CO2 (mol/kg)  =   1.230e-04
                      Temperature (deg C)  =  25.00
                  Electrical balance (eq)  =  -1.217e-09
 Percent error, 100*(Cat-|An|)/(Cat+|An|)  =  -0.00
                               Iterations  =  15
                                  Total H  = 1.110124e+02
                                  Total O  = 5.550659e+01

----------------------------Distribution of species----------------------------

                                               Log       Log       Log    mole V
   Species          Molality    Activity  Molality  Activity     Gamma   cm3/mol

   OH-             8.353e-05   8.167e-05    -4.078    -4.088    -0.010     -4.12
   H+              1.267e-10   1.239e-10    -9.897    -9.907    -0.009      0.00
   H2O             5.551e+01   1.000e+00     1.744    -0.000     0.000     18.07
C(-4)         0.000e+00
   CH4             0.000e+00   0.000e+00  -126.211  -126.211     0.000     32.22
C(4)          1.230e-04
   HCO3-           8.352e-05   8.168e-05    -4.078    -4.088    -0.010     24.58
   CO3-2           3.379e-05   3.091e-05    -4.471    -4.510    -0.039     -4.42
   CaCO3           5.564e-06   5.565e-06    -5.255    -5.255     0.000    -14.60
   CaHCO3+         1.142e-07   1.117e-07    -6.942    -6.952    -0.010      9.66
   CO2             2.276e-08   2.276e-08    -7.643    -7.643     0.000     30.26
Ca            1.230e-04
   Ca+2            1.172e-04   1.072e-04    -3.931    -3.970    -0.039    -18.18
   CaCO3           5.564e-06   5.565e-06    -5.255    -5.255     0.000    -14.60
   CaOH+           1.468e-07   1.435e-07    -6.833    -6.843    -0.010     (0)  
   CaHCO3+         1.142e-07   1.117e-07    -6.942    -6.952    -0.010      9.66
H(0)          2.578e-39
   H2              1.289e-39   1.289e-39   -38.890   -38.890     0.000     28.61
O(0)          5.017e-15
   O2              2.508e-15   2.509e-15   -14.601   -14.601     0.000     30.40

------------------------------Saturation indices-------------------------------

	Phase               SI   log IAP   log K(298 K,   1 atm)

	Aragonite        -0.14     -8.48   -8.34  CaCO3
	Calcite           0.00     -8.48   -8.48  CaCO3
	CH4(g)         -123.37   -126.21   -2.84  CH4
	CO2(g)           -6.18     -7.64   -1.46  CO2
	H2(g)           -35.79    -38.89   -3.10  H2
	H2O(g)           -1.50     -0.00    1.50  H2O
	O2(g)           -11.71    -14.60   -2.89  O2


------------------
End of simulation.
------------------

------------------------------------
Reading input data for simulation 2.
------------------------------------

	USE solution 2
	USE equilibrium_phases 1
	REACTION
		HCl  1
		1
	END
-----------------------------------------
Beginning of batch-reaction calculations.
-----------------------------------------

Reaction step 1.

Using solution 2.	Solution after simulation 1.
Using pure phase assemblage 1.	Pure-phase assemblage after simulation 1.
Using reaction 1.	

Reaction 1.	

	  1.000e+00 moles of the following reaction have been added:

	                 Relative
	Reactant            moles

	HCl                  1.00000

	                 Relative
	Element             moles
	Cl                   1.00000
	H                    1.00000

-------------------------------Phase assemblage--------------------------------

                                                      Moles in assemblage
Phase               SI  log IAP  log K(T, P)   Initial       Final       Delta

Calcite         -16.29   -24.76     -8.48    1.002e+01   1.002e+01   0.000e+00

-----------------------------Solution composition------------------------------

	Elements           Molality       Moles

	C                 1.230e-04   1.230e-04
	Ca                1.230e-04   1.230e-04
	Cl                1.000e+00   1.000e+00

----------------------------Description of solution----------------------------

                                       pH  =   0.129      Charge balance
                                       pe  =  17.775      Adjusted to redox equilibrium
       Specific Conductance (uS/cm, 25 oC) = 306199
                          Density (g/cm3)  =   1.01425
                               Volume (L)  =   1.02192
                        Activity of water  =   0.966
                           Ionic strength  =   1.000e+00
                       Mass of water (kg)  =   1.000e+00
                 Total alkalinity (eq/kg)  =  -9.998e-01
                       Total CO2 (mol/kg)  =   1.230e-04
                      Temperature (deg C)  =  25.00
                  Electrical balance (eq)  =  -1.217e-09
 Percent error, 100*(Cat-|An|)/(Cat+|An|)  =  -0.00
                               Iterations  =  14
                                  Total H  = 1.120124e+02
                                  Total O  = 5.550659e+01

----------------------------Distribution of species----------------------------

                                               Log       Log       Log    mole V
   Species          Molality    Activity  Molality  Activity     Gamma   cm3/mol

   H+              9.998e-01   7.430e-01    -0.000    -0.129    -0.129      0.00
   OH-             2.273e-14   1.316e-14   -13.643   -13.881    -0.237     -2.10
   H2O             5.551e+01   9.660e-01     1.744    -0.015     0.000     18.07
C(-4)         0.000e+00
   CH4             0.000e+00   0.000e+00  -122.720  -122.620     0.100     32.22
C(4)          1.230e-04
   CO2             1.230e-04   1.549e-04    -3.910    -3.810     0.100     30.26
   HCO3-           1.368e-10   8.955e-11    -9.864   -10.048    -0.184     29.26
   CaHCO3+         5.157e-14   3.473e-14   -13.288   -13.459    -0.172      9.98
   CO3-2           3.074e-20   5.652e-21   -19.512   -20.248    -0.735      0.85
   CaCO3           2.293e-22   2.887e-22   -21.640   -21.540     0.100    -14.60
Ca            1.230e-04
   Ca+2            1.230e-04   3.040e-05    -3.910    -4.517    -0.607    -16.47
   CaHCO3+         5.157e-14   3.473e-14   -13.288   -13.459    -0.172      9.98
   CaOH+           8.296e-18   6.560e-18   -17.081   -17.183    -0.102     (0)  
   CaCO3           2.293e-22   2.887e-22   -21.640   -21.540     0.100    -14.60
Cl            1.000e+00
   Cl-             1.000e+00   6.086e-01    -0.000    -0.216    -0.216     18.94
H(0)          1.751e-39
   H2              8.756e-40   1.102e-39   -39.058   -38.958     0.100     28.61
O(0)          5.085e-15
   O2              2.543e-15   3.201e-15   -14.595   -14.495     0.100     30.40

------------------------------Saturation indices-------------------------------

	Phase               SI   log IAP   log K(298 K,   1 atm)

	Aragonite       -16.43    -24.76   -8.34  CaCO3
	Calcite         -16.29    -24.76   -8.48  CaCO3
	CH4(g)         -119.78   -122.62   -2.84  CH4
	CO2(g)           -2.35     -3.81   -1.46  CO2
	H2(g)           -35.86    -38.96   -3.10  H2
	H2O(g)           -1.52     -0.02    1.50  H2O
	O2(g)           -11.60    -14.49   -2.89  O2


------------------
End of simulation.
------------------

------------------------------------
Reading input data for simulation 3.
------------------------------------

------------------------------
End of Run after 0.02 Seconds.
------------------------------

