WARNING: Database file from DATABASE keyword is used; command line argument ignored.
   Input file: prob8
  Output file: prob8.out
Database file: ../database/phreeqc.dat

------------------
Reading data base.
------------------

	SOLUTION_MASTER_SPECIES
	SOLUTION_SPECIES
	PHASES
	EXCHANGE_MASTER_SPECIES
	EXCHANGE_SPECIES
	SURFACE_MASTER_SPECIES
	SURFACE_SPECIES
	RATES
	END
------------------------------------
Reading input data for simulation 1.
------------------------------------

	DATABASE ../database/phreeqc.dat
	knobs
		logfile
	PRINT
		status false
	SOLUTION 1
		units 	mg/L
		pH	5.5
		pe	4.7
		S(6)	3200
		Fe	270
		Zn	210
	PURE_PHASES 1
		sphalerite	
		pyrite
	REACTION 1
		CH2O	1.0
		0.03 moles in 3 steps
	END
-------------------------------------------
Beginning of initial solution calculations.
-------------------------------------------

Initial solution 1.	

-----------------------------Solution composition------------------------------

	Elements           Molality       Moles

	Fe                4.852e-03   4.852e-03
	S(6)              3.343e-02   3.343e-02
	Zn                3.224e-03   3.224e-03

----------------------------Description of solution----------------------------

                                       pH  =   5.500    
                                       pe  =   4.700    
       Specific Conductance (uS/cm, 25 oC) = 3504
                          Density (g/cm3)  =   1.00038
                               Volume (L)  =   1.00545
                        Activity of water  =   0.999
                           Ionic strength  =   6.575e-02
                       Mass of water (kg)  =   1.000e+00
                 Total alkalinity (eq/kg)  =  -8.090e-06
                    Total carbon (mol/kg)  =   0.000e+00
                       Total CO2 (mol/kg)  =   0.000e+00
                      Temperature (deg C)  =  25.00
                  Electrical balance (eq)  =  -5.071e-02
 Percent error, 100*(Cat-|An|)/(Cat+|An|)  = -77.11
                               Iterations  =   6
                                  Total H  = 1.110124e+02
                                  Total O  = 5.563996e+01

----------------------------Distribution of species----------------------------

                                               Log       Log       Log    mole V
   Species          Molality    Activity  Molality  Activity     Gamma   cm3/mol

   H+              3.753e-06   3.162e-06    -5.426    -5.500    -0.074      0.00
   OH-             4.036e-09   3.199e-09    -8.394    -8.495    -0.101     -3.82
   H2O             5.551e+01   9.994e-01     1.744    -0.000     0.000     18.07
Fe(2)         4.851e-03
   Fe+2            2.471e-03   1.110e-03    -2.607    -2.955    -0.348    -21.55
   FeSO4           2.380e-03   2.416e-03    -2.623    -2.617     0.007     (0)  
   FeOH+           1.371e-07   1.109e-07    -6.863    -6.955    -0.092     (0)  
   FeHSO4+         6.236e-08   5.022e-08    -7.205    -7.299    -0.094     (0)  
   Fe(OH)2         2.939e-13   2.984e-13   -12.532   -12.525     0.007     (0)  
   Fe(OH)3-        4.331e-18   3.504e-18   -17.363   -17.455    -0.092     (0)  
Fe(3)         1.467e-06
   Fe(OH)2+        1.395e-06   1.135e-06    -5.855    -5.945    -0.090     (0)  
   Fe(OH)3         4.550e-08   4.619e-08    -7.342    -7.335     0.007     (0)  
   FeOH+2          2.530e-08   1.084e-08    -7.597    -7.965    -0.368     (0)  
   FeSO4+          8.813e-10   7.131e-10    -9.055    -9.147    -0.092     (0)  
   Fe(SO4)2-       2.371e-10   1.909e-10    -9.625    -9.719    -0.094     (0)  
   Fe+3            2.482e-11   5.313e-12   -10.605   -11.275    -0.669     (0)  
   Fe(OH)4-        1.637e-11   1.331e-11   -10.786   -10.876    -0.090     (0)  
   Fe2(OH)2+4      1.011e-13   3.164e-15   -12.995   -14.500    -1.504     (0)  
   FeHSO4+2        1.436e-14   6.038e-15   -13.843   -14.219    -0.376     (0)  
   Fe3(OH)4+5      1.682e-16   7.499e-19   -15.774   -18.125    -2.351     (0)  
H(0)          5.552e-24
   H2              2.776e-24   2.818e-24   -23.557   -23.550     0.007     28.61
O(0)          0.000e+00
   O2              0.000e+00   0.000e+00   -45.287   -45.281     0.007     30.40
S(6)          3.343e-02
   SO4-2           2.874e-02   1.224e-02    -1.542    -1.912    -0.371     14.86
   FeSO4           2.380e-03   2.416e-03    -2.623    -2.617     0.007     (0)  
   ZnSO4           1.561e-03   1.584e-03    -2.807    -2.800     0.007     (0)  
   Zn(SO4)2-2      3.747e-04   1.576e-04    -3.426    -3.802    -0.376     (0)  
   HSO4-           4.673e-06   3.763e-06    -5.330    -5.424    -0.094     40.48
   FeHSO4+         6.236e-08   5.022e-08    -7.205    -7.299    -0.094     (0)  
   FeSO4+          8.813e-10   7.131e-10    -9.055    -9.147    -0.092     (0)  
   Fe(SO4)2-       2.371e-10   1.909e-10    -9.625    -9.719    -0.094     (0)  
   FeHSO4+2        1.436e-14   6.038e-15   -13.843   -14.219    -0.376     (0)  
Zn            3.224e-03
   ZnSO4           1.561e-03   1.584e-03    -2.807    -2.800     0.007     (0)  
   Zn+2            1.289e-03   5.522e-04    -2.890    -3.258    -0.368    -23.70
   Zn(SO4)2-2      3.747e-04   1.576e-04    -3.426    -3.802    -0.376     (0)  
   ZnOH+           2.376e-07   1.913e-07    -6.624    -6.718    -0.094     (0)  
   Zn(OH)2         6.839e-10   6.943e-10    -9.165    -9.158     0.007     (0)  
   Zn(OH)3-        8.616e-16   6.939e-16   -15.065   -15.159    -0.094     (0)  
   Zn(OH)4-2       8.263e-23   3.475e-23   -22.083   -22.459    -0.376     (0)  

------------------------------Saturation indices-------------------------------

	Phase               SI   log IAP   log K(298 K,   1 atm)

	Fe(OH)3(a)        0.33      5.22    4.89  Fe(OH)3
	Goethite          6.22      5.22   -1.00  FeOOH
	H2(g)           -20.45    -23.55   -3.10  H2
	H2O(g)           -1.50     -0.00    1.50  H2O
	Hematite         14.46     10.45   -4.01  Fe2O3
	Melanterite      -2.66     -4.87   -2.21  FeSO4:7H2O
	O2(g)           -42.39    -45.28   -2.89  O2
	Zn(OH)2(e)       -3.76      7.74   11.50  Zn(OH)2


-----------------------------------------
Beginning of batch-reaction calculations.
-----------------------------------------

Reaction step 1.

Using solution 1.	
Using pure phase assemblage 1.	
Using reaction 1.	

Reaction 1.	

	  1.000e-02 moles of the following reaction have been added:

	                 Relative
	Reactant            moles

	CH2O                 1.00000

	                 Relative
	Element             moles
	C                    1.00000
	H                    2.00000
	O                    1.00000

-------------------------------Phase assemblage--------------------------------

                                                      Moles in assemblage
Phase               SI  log IAP  log K(T, P)   Initial       Final       Delta

Pyrite            0.00   -18.48    -18.48    1.000e+01   1.000e+01   1.074e-03
Sphalerite        0.00   -11.62    -11.62    1.000e+01   1.000e+01   3.121e-03

-----------------------------Solution composition------------------------------

	Elements           Molality       Moles

	C                 9.998e-03   1.000e-02
	Fe                3.778e-03   3.779e-03
	S                 2.816e-02   2.817e-02
	Zn                1.036e-04   1.036e-04

----------------------------Description of solution----------------------------

                                       pH  =   5.660      Charge balance
                                       pe  =  -0.836      Adjusted to redox equilibrium
       Specific Conductance (uS/cm, 25 oC) = 3222
                          Density (g/cm3)  =   0.99981
                               Volume (L)  =   1.00605
                        Activity of water  =   0.999
                           Ionic strength  =   5.753e-02
                       Mass of water (kg)  =   1.000e+00
                 Total alkalinity (eq/kg)  =   2.141e-03
                       Total CO2 (mol/kg)  =   9.998e-03
                      Temperature (deg C)  =  25.00
                  Electrical balance (eq)  =  -5.071e-02
 Percent error, 100*(Cat-|An|)/(Cat+|An|)  = -86.51
                               Iterations  =  10
                                  Total H  = 1.110324e+02
                                  Total O  = 5.564996e+01

----------------------------Distribution of species----------------------------

                                               Log       Log       Log    mole V
   Species          Molality    Activity  Molality  Activity     Gamma   cm3/mol

   H+              2.581e-06   2.189e-06    -5.588    -5.660    -0.072      0.00
   OH-             5.763e-09   4.621e-09    -8.239    -8.335    -0.096     -3.85
   H2O             5.551e+01   9.993e-01     1.744    -0.000     0.000     18.07
C(-4)         4.981e-17
   CH4             4.981e-17   5.047e-17   -16.303   -16.297     0.006     32.22
C(4)          9.998e-03
   CO2             7.853e-03   7.958e-03    -2.105    -2.099     0.006     29.09
   HCO3-           1.969e-03   1.616e-03    -2.706    -2.792    -0.086     25.04
   FeHCO3+         1.708e-04   1.389e-04    -3.768    -3.857    -0.090     (0)  
   ZnHCO3+         4.473e-06   3.637e-06    -5.349    -5.439    -0.090     (0)  
   FeCO3           7.043e-07   7.137e-07    -6.152    -6.147     0.006     (0)  
   ZnCO3           1.219e-07   1.235e-07    -6.914    -6.908     0.006     (0)  
   CO3-2           7.632e-08   3.462e-08    -7.117    -7.461    -0.343     -4.70
   Zn(CO3)2-2      2.092e-10   9.143e-11    -9.679   -10.039    -0.359     (0)  
Fe(2)         3.778e-03
   Fe+2            1.847e-03   8.593e-04    -2.734    -3.066    -0.332    -21.59
   FeSO4           1.760e-03   1.783e-03    -2.755    -2.749     0.006     (0)  
   FeHCO3+         1.708e-04   1.389e-04    -3.768    -3.857    -0.090     (0)  
   FeCO3           7.043e-07   7.137e-07    -6.152    -6.147     0.006     (0)  
   FeOH+           1.518e-07   1.241e-07    -6.819    -6.906    -0.088     (0)  
   FeHSO4+         3.156e-08   2.566e-08    -7.501    -7.591    -0.090     (0)  
   Fe(OH)2         4.757e-13   4.821e-13   -12.323   -12.317     0.006     (0)  
   Fe(OH)3-        1.001e-17   8.177e-18   -17.000   -17.087    -0.088     (0)  
   Fe(HS)2         6.578e-20   6.666e-20   -19.182   -19.176     0.006     (0)  
   Fe(HS)3-        2.634e-30   2.141e-30   -29.579   -29.669    -0.090     (0)  
Fe(3)         6.888e-12
   Fe(OH)2+        6.497e-12   5.332e-12   -11.187   -11.273    -0.086     (0)  
   Fe(OH)3         3.095e-13   3.136e-13   -12.509   -12.504     0.006     (0)  
   FeOH+2          7.915e-14   3.527e-14   -13.102   -13.453    -0.351     (0)  
   FeSO4+          1.874e-15   1.531e-15   -14.727   -14.815    -0.088     (0)  
   Fe(SO4)2-       4.808e-16   3.909e-16   -15.318   -15.408    -0.090     (0)  
   Fe(OH)4-        1.591e-16   1.306e-16   -15.798   -15.884    -0.086     (0)  
   Fe+3            5.273e-17   1.196e-17   -16.278   -16.922    -0.644     (0)  
   FeHSO4+2        2.053e-20   8.974e-21   -19.688   -20.047    -0.359     (0)  
   Fe2(OH)2+4      9.175e-25   3.348e-26   -24.037   -25.475    -1.438     (0)  
   Fe3(OH)4+5      6.581e-33   3.730e-35   -32.182   -34.428    -2.247     (0)  
H(0)          3.149e-13
   H2              1.574e-13   1.595e-13   -12.803   -12.797     0.006     28.61
O(0)          0.000e+00
   O2              0.000e+00   0.000e+00   -66.792   -66.786     0.006     30.40
S(-2)         5.942e-12
   H2S             5.572e-12   5.646e-12   -11.254   -11.248     0.006     37.16
   HS-             3.679e-13   2.950e-13   -12.434   -12.530    -0.096     20.80
   Zn(HS)2         1.338e-15   1.355e-15   -14.874   -14.868     0.006     (0)  
   Fe(HS)2         6.578e-20   6.666e-20   -19.182   -19.176     0.006     (0)  
   S-2             3.653e-20   1.628e-20   -19.437   -19.788    -0.351     (0)  
   Zn(HS)3-        7.109e-27   5.780e-27   -26.148   -26.238    -0.090     (0)  
   Fe(HS)3-        2.634e-30   2.141e-30   -29.579   -29.669    -0.090     (0)  
S(6)          2.816e-02
   SO4-2           2.633e-02   1.167e-02    -1.580    -1.933    -0.353     14.80
   FeSO4           1.760e-03   1.783e-03    -2.755    -2.749     0.006     (0)  
   ZnSO4           4.827e-05   4.892e-05    -4.316    -4.311     0.006     (0)  
   Zn(SO4)2-2      1.062e-05   4.640e-06    -4.974    -5.333    -0.359     (0)  
   HSO4-           3.055e-06   2.484e-06    -5.515    -5.605    -0.090     40.47
   FeHSO4+         3.156e-08   2.566e-08    -7.501    -7.591    -0.090     (0)  
   FeSO4+          1.874e-15   1.531e-15   -14.727   -14.815    -0.088     (0)  
   Fe(SO4)2-       4.808e-16   3.909e-16   -15.318   -15.408    -0.090     (0)  
   FeHSO4+2        2.053e-20   8.974e-21   -19.688   -20.047    -0.359     (0)  
Zn            1.036e-04
   ZnSO4           4.827e-05   4.892e-05    -4.316    -4.311     0.006     (0)  
   Zn+2            4.012e-05   1.788e-05    -4.397    -4.748    -0.351    -23.73
   Zn(SO4)2-2      1.062e-05   4.640e-06    -4.974    -5.333    -0.359     (0)  
   ZnHCO3+         4.473e-06   3.637e-06    -5.349    -5.439    -0.090     (0)  
   ZnCO3           1.219e-07   1.235e-07    -6.914    -6.908     0.006     (0)  
   ZnOH+           1.101e-08   8.950e-09    -7.958    -8.048    -0.090     (0)  
   Zn(CO3)2-2      2.092e-10   9.143e-11    -9.679   -10.039    -0.359     (0)  
   Zn(OH)2         4.630e-11   4.692e-11   -10.334   -10.329     0.006     (0)  
   Zn(HS)2         1.338e-15   1.355e-15   -14.874   -14.868     0.006     (0)  
   Zn(OH)3-        8.331e-17   6.774e-17   -16.079   -16.169    -0.090     (0)  
   Zn(OH)4-2       1.121e-23   4.902e-24   -22.950   -23.310    -0.359     (0)  
   Zn(HS)3-        7.109e-27   5.780e-27   -26.148   -26.238    -0.090     (0)  

------------------------------Saturation indices-------------------------------

	Phase               SI   log IAP   log K(298 K,   1 atm)

	CH4(g)          -13.45    -16.30   -2.84  CH4
	CO2(g)           -0.64     -2.10   -1.46  CO2
	Fe(OH)3(a)       -4.83      0.06    4.89  Fe(OH)3
	FeS(ppt)         -6.02     -9.94   -3.92  FeS
	Goethite          1.06      0.06   -1.00  FeOOH
	H2(g)            -9.70    -12.80   -3.10  H2
	H2O(g)           -1.50     -0.00    1.50  H2O
	H2S(g)          -10.20    -18.19   -7.99  H2S
	Hematite          4.12      0.11   -4.01  Fe2O3
	Mackinawite      -5.29     -9.94   -4.65  FeS
	Melanterite      -2.79     -5.00   -2.21  FeSO4:7H2O
	O2(g)           -63.89    -66.79   -2.89  O2
	Pyrite            0.00    -18.48  -18.48  FeS2
	Siderite          0.36    -10.53  -10.89  FeCO3
	Smithsonite      -2.21    -12.21  -10.00  ZnCO3
	Sphalerite        0.00    -11.62  -11.62  ZnS
	Sulfur           -6.48     -1.60    4.88  S
	Zn(OH)2(e)       -4.93      6.57   11.50  Zn(OH)2


Reaction step 2.

Using solution 1.	
Using pure phase assemblage 1.	
Using reaction 1.	

Reaction 1.	

	  2.000e-02 moles of the following reaction have been added:

	                 Relative
	Reactant            moles

	CH2O                 1.00000

	                 Relative
	Element             moles
	C                    1.00000
	H                    2.00000
	O                    1.00000

-------------------------------Phase assemblage--------------------------------

                                                      Moles in assemblage
Phase               SI  log IAP  log K(T, P)   Initial       Final       Delta

Pyrite            0.00   -18.48    -18.48    1.000e+01   1.000e+01   3.881e-03
Sphalerite        0.00   -11.62    -11.62    1.000e+01   1.000e+01   3.208e-03

-----------------------------Solution composition------------------------------

	Elements           Molality       Moles

	C                 1.999e-02   2.000e-02
	Fe                9.711e-04   9.714e-04
	S                 2.246e-02   2.246e-02
	Zn                1.643e-05   1.644e-05

----------------------------Description of solution----------------------------

                                       pH  =   6.059      Charge balance
                                       pe  =  -1.344      Adjusted to redox equilibrium
       Specific Conductance (uS/cm, 25 oC) = 2898
                          Density (g/cm3)  =   0.99940
                               Volume (L)  =   1.00654
                        Activity of water  =   0.999
                           Ionic strength  =   4.890e-02
                       Mass of water (kg)  =   1.000e+00
                 Total alkalinity (eq/kg)  =   7.753e-03
                       Total CO2 (mol/kg)  =   1.999e-02
                      Temperature (deg C)  =  25.00
                  Electrical balance (eq)  =  -5.071e-02
 Percent error, 100*(Cat-|An|)/(Cat+|An|)  = -96.06
                               Iterations  =   9
                                  Total H  = 1.110524e+02
                                  Total O  = 5.565996e+01

----------------------------Distribution of species----------------------------

                                               Log       Log       Log    mole V
   Species          Molality    Activity  Molality  Activity     Gamma   cm3/mol

   H+              1.022e-06   8.739e-07    -5.990    -6.059    -0.068      0.00
   OH-             1.424e-08   1.157e-08    -7.847    -7.937    -0.090     -3.88
   H2O             5.551e+01   9.993e-01     1.744    -0.000     0.000     18.07
C(-4)         5.759e-16
   CH4             5.759e-16   5.824e-16   -15.240   -15.235     0.005     32.22
C(4)          1.999e-02
   CO2             1.224e-02   1.238e-02    -1.912    -1.907     0.005     29.09
   HCO3-           7.587e-03   6.296e-03    -2.120    -2.201    -0.081     25.00
   FeHCO3+         1.603e-04   1.318e-04    -3.795    -3.880    -0.085     (0)  
   ZnHCO3+         2.643e-06   2.174e-06    -5.578    -5.663    -0.085     (0)  
   FeCO3           1.678e-06   1.697e-06    -5.775    -5.770     0.005     (0)  
   CO3-2           7.125e-07   3.379e-07    -6.147    -6.471    -0.324     -4.77
   ZnCO3           1.828e-07   1.849e-07    -6.738    -6.733     0.005     (0)  
   Zn(CO3)2-2      2.919e-09   1.336e-09    -8.535    -8.874    -0.339     (0)  
Fe(2)         9.711e-04
   Fe+2            4.316e-04   2.094e-04    -3.365    -3.679    -0.314    -21.63
   FeSO4           3.775e-04   3.818e-04    -3.423    -3.418     0.005     (0)  
   FeHCO3+         1.603e-04   1.318e-04    -3.795    -3.880    -0.085     (0)  
   FeCO3           1.678e-06   1.697e-06    -5.775    -5.770     0.005     (0)  
   FeOH+           9.159e-08   7.570e-08    -7.038    -7.121    -0.083     (0)  
   FeHSO4+         2.666e-09   2.193e-09    -8.574    -8.659    -0.085     (0)  
   Fe(OH)2         7.285e-13   7.367e-13   -12.138   -12.133     0.005     (0)  
   Fe(OH)3-        3.787e-17   3.130e-17   -16.422   -16.504    -0.083     (0)  
   Fe(HS)2         1.088e-19   1.100e-19   -18.963   -18.959     0.005     (0)  
   Fe(HS)3-        1.118e-29   9.197e-30   -28.951   -29.036    -0.085     (0)  
Fe(3)         3.436e-12
   Fe(OH)2+        3.052e-12   2.533e-12   -11.515   -11.596    -0.081     (0)  
   Fe(OH)3         3.689e-13   3.731e-13   -12.433   -12.428     0.005     (0)  
   FeOH+2          1.433e-14   6.689e-15   -13.844   -14.175    -0.331     (0)  
   Fe(OH)4-        4.688e-16   3.891e-16   -15.329   -15.410    -0.081     (0)  
   FeSO4+          1.233e-16   1.019e-16   -15.909   -15.992    -0.083     (0)  
   Fe(SO4)2-       2.779e-17   2.286e-17   -16.556   -16.641    -0.085     (0)  
   Fe+3            3.723e-18   9.060e-19   -17.429   -18.043    -0.614     (0)  
   FeHSO4+2        5.210e-22   2.384e-22   -21.283   -21.623    -0.339     (0)  
   Fe2(OH)2+4      2.746e-26   1.204e-27   -25.561   -26.919    -1.358     (0)  
   Fe3(OH)4+5      8.437e-35   6.373e-37   -34.074   -36.196    -2.122     (0)  
H(0)          5.206e-13
   H2              2.603e-13   2.633e-13   -12.584   -12.580     0.005     28.61
O(0)          0.000e+00
   O2              0.000e+00   0.000e+00   -67.226   -67.221     0.005     30.40
S(-2)         6.748e-12
   H2S             5.801e-12   5.867e-12   -11.236   -11.232     0.005     37.16
   HS-             9.444e-13   7.678e-13   -12.025   -12.115    -0.090     20.78
   Zn(HS)2         1.393e-15   1.408e-15   -14.856   -14.851     0.005     (0)  
   S-2             2.274e-19   1.061e-19   -18.643   -18.974    -0.331     (0)  
   Fe(HS)2         1.088e-19   1.100e-19   -18.963   -18.959     0.005     (0)  
   Zn(HS)3-        1.900e-26   1.563e-26   -25.721   -25.806    -0.085     (0)  
   Fe(HS)3-        1.118e-29   9.197e-30   -28.951   -29.036    -0.085     (0)  
S(6)          2.246e-02
   SO4-2           2.207e-02   1.025e-02    -1.656    -1.989    -0.333     14.73
   FeSO4           3.775e-04   3.818e-04    -3.423    -3.418     0.005     (0)  
   ZnSO4           6.520e-06   6.594e-06    -5.186    -5.181     0.005     (0)  
   Zn(SO4)2-2      1.201e-06   5.496e-07    -5.920    -6.260    -0.339     (0)  
   HSO4-           1.059e-06   8.713e-07    -5.975    -6.060    -0.085     40.45
   FeHSO4+         2.666e-09   2.193e-09    -8.574    -8.659    -0.085     (0)  
   FeSO4+          1.233e-16   1.019e-16   -15.909   -15.992    -0.083     (0)  
   Fe(SO4)2-       2.779e-17   2.286e-17   -16.556   -16.641    -0.085     (0)  
   FeHSO4+2        5.210e-22   2.384e-22   -21.283   -21.623    -0.339     (0)  
Zn            1.643e-05
   ZnSO4           6.520e-06   6.594e-06    -5.186    -5.181     0.005     (0)  
   Zn+2            5.877e-06   2.743e-06    -5.231    -5.562    -0.331    -23.77
   ZnHCO3+         2.643e-06   2.174e-06    -5.578    -5.663    -0.085     (0)  
   Zn(SO4)2-2      1.201e-06   5.496e-07    -5.920    -6.260    -0.339     (0)  
   ZnCO3           1.828e-07   1.849e-07    -6.738    -6.733     0.005     (0)  
   ZnOH+           4.181e-09   3.439e-09    -8.379    -8.464    -0.085     (0)  
   Zn(CO3)2-2      2.919e-09   1.336e-09    -8.535    -8.874    -0.339     (0)  
   Zn(OH)2         4.464e-11   4.515e-11   -10.350   -10.345     0.005     (0)  
   Zn(HS)2         1.393e-15   1.408e-15   -14.856   -14.851     0.005     (0)  
   Zn(OH)3-        1.985e-16   1.633e-16   -15.702   -15.787    -0.085     (0)  
   Zn(OH)4-2       6.465e-23   2.959e-23   -22.189   -22.529    -0.339     (0)  
   Zn(HS)3-        1.900e-26   1.563e-26   -25.721   -25.806    -0.085     (0)  

------------------------------Saturation indices-------------------------------

	Phase               SI   log IAP   log K(298 K,   1 atm)

	CH4(g)          -12.39    -15.23   -2.84  CH4
	CO2(g)           -0.45     -1.91   -1.46  CO2
	Fe(OH)3(a)       -4.76      0.13    4.89  Fe(OH)3
	FeS(ppt)         -5.82     -9.74   -3.92  FeS
	Goethite          1.13      0.13   -1.00  FeOOH
	H2(g)            -9.48    -12.58   -3.10  H2
	H2O(g)           -1.50     -0.00    1.50  H2O
	H2S(g)          -10.18    -18.17   -7.99  H2S
	Hematite          4.27      0.26   -4.01  Fe2O3
	Mackinawite      -5.09     -9.74   -4.65  FeS
	Melanterite      -3.46     -5.67   -2.21  FeSO4:7H2O
	O2(g)           -64.33    -67.22   -2.89  O2
	Pyrite            0.00    -18.48  -18.48  FeS2
	Siderite          0.74    -10.15  -10.89  FeCO3
	Smithsonite      -2.03    -12.03  -10.00  ZnCO3
	Sphalerite        0.00    -11.62  -11.62  ZnS
	Sulfur           -6.68     -1.80    4.88  S
	Zn(OH)2(e)       -4.95      6.55   11.50  Zn(OH)2


Reaction step 3.

Using solution 1.	
Using pure phase assemblage 1.	
Using reaction 1.	

Reaction 1.	

	  3.000e-02 moles of the following reaction have been added:

	                 Relative
	Reactant            moles

	CH2O                 1.00000

	                 Relative
	Element             moles
	C                    1.00000
	H                    2.00000
	O                    1.00000

-------------------------------Phase assemblage--------------------------------

                                                      Moles in assemblage
Phase               SI  log IAP  log K(T, P)   Initial       Final       Delta

Pyrite           -0.00   -18.48    -18.48    1.000e+01   1.000e+01   4.852e-03
Sphalerite       -0.00   -11.62    -11.62    1.000e+01   1.000e+01   3.224e-03

-----------------------------Solution composition------------------------------

	Elements           Molality       Moles

	C                 2.999e-02   3.000e-02
	Fe                2.410e-17   2.411e-17
	S                 2.050e-02   2.051e-02
	Zn                6.209e-07   6.211e-07

----------------------------Description of solution----------------------------

                                       pH  =   6.302      Charge balance
                                       pe  =  -2.740      Adjusted to redox equilibrium
       Specific Conductance (uS/cm, 25 oC) = 2693
                          Density (g/cm3)  =   0.99922
                               Volume (L)  =   1.00727
                        Activity of water  =   0.999
                           Ionic strength  =   4.256e-02
                       Mass of water (kg)  =   1.000e+00
                 Total alkalinity (eq/kg)  =   1.626e-02
                       Total CO2 (mol/kg)  =   2.999e-02
                      Temperature (deg C)  =  25.00
                  Electrical balance (eq)  =  -5.071e-02
 Percent error, 100*(Cat-|An|)/(Cat+|An|)  = -100.00
                               Iterations  =  31
                                  Total H  = 1.110724e+02
                                  Total O  = 5.566996e+01

----------------------------Distribution of species----------------------------

                                               Log       Log       Log    mole V
   Species          Molality    Activity  Molality  Activity     Gamma   cm3/mol

   H+              5.796e-07   4.986e-07    -6.237    -6.302    -0.065      0.00
   OH-             2.467e-08   2.028e-08    -7.608    -7.693    -0.085     -3.90
   H2O             5.551e+01   9.991e-01     1.744    -0.000     0.000     18.07
C(-4)         1.135e-06
   CH4             1.135e-06   1.146e-06    -5.945    -5.941     0.004     32.22
C(4)          2.999e-02
   HCO3-           1.553e-02   1.301e-02    -1.809    -1.886    -0.077     24.98
   CO2             1.445e-02   1.460e-02    -1.840    -1.836     0.004     29.09
   CO3-2           2.487e-06   1.223e-06    -5.604    -5.912    -0.308     -4.83
   ZnHCO3+         3.997e-15   3.319e-15   -14.398   -14.479    -0.081     (0)  
   ZnCO3           4.899e-16   4.948e-16   -15.310   -15.306     0.004     (0)  
   Zn(CO3)2-2      2.722e-17   1.294e-17   -16.565   -16.888    -0.323     (0)  
   FeHCO3+         1.112e-19   9.231e-20   -18.954   -19.035    -0.081     (0)  
   FeCO3           2.062e-21   2.083e-21   -20.686   -20.681     0.004     (0)  
Fe(2)         2.410e-17
   Fe(HS)2         2.201e-17   2.223e-17   -16.657   -16.653     0.004     (0)  
   Fe(HS)3-        1.728e-18   1.435e-18   -17.762   -17.843    -0.081     (0)  
   Fe+2            1.413e-19   7.096e-20   -18.850   -19.149    -0.299    -21.66
   FeHCO3+         1.112e-19   9.231e-20   -18.954   -19.035    -0.081     (0)  
   FeSO4           1.039e-19   1.049e-19   -18.983   -18.979     0.004     (0)  
   FeCO3           2.062e-21   2.083e-21   -20.686   -20.681     0.004     (0)  
   FeOH+           5.389e-23   4.497e-23   -22.269   -22.347    -0.079     (0)  
   FeHSO4+         4.141e-25   3.439e-25   -24.383   -24.464    -0.081     (0)  
   Fe(OH)2         7.594e-28   7.669e-28   -27.120   -27.115     0.004     (0)  
   Fe(OH)3-        6.842e-32   5.709e-32   -31.165   -31.243    -0.079     (0)  
Fe(3)         1.538e-28
   Fe(OH)2+        1.263e-28   1.058e-28   -27.898   -27.975    -0.077     (0)  
   Fe(OH)3         2.705e-29   2.731e-29   -28.568   -28.564     0.004     (0)  
   FeOH+2          3.289e-31   1.595e-31   -30.483   -30.797    -0.314     (0)  
   Fe(OH)4-        5.960e-32   4.991e-32   -31.225   -31.302    -0.077     (0)  
   FeSO4+          1.347e-33   1.124e-33   -32.871   -32.949    -0.079     (0)  
   Fe(SO4)2-       2.462e-34   2.044e-34   -33.609   -33.689    -0.081     (0)  
   Fe+3            4.776e-35   1.233e-35   -34.321   -34.909    -0.588     (0)  
   FeHSO4+2        3.156e-39   1.501e-39   -38.501   -38.824    -0.323     (0)  
   Fe2(OH)2+4      0.000e+00   0.000e+00   -58.873   -60.165    -1.291     (0)  
   Fe3(OH)4+5      0.000e+00   0.000e+00   -83.802   -85.820    -2.018     (0)  
H(0)          1.054e-10
   H2              5.269e-11   5.321e-11   -10.278   -10.274     0.004     28.61
O(0)          0.000e+00
   O2              0.000e+00   0.000e+00   -71.837   -71.833     0.004     30.40
S(-2)         3.282e-03
   H2S             2.560e-03   2.585e-03    -2.592    -2.588     0.004     37.16
   HS-             7.211e-04   5.929e-04    -3.142    -3.227    -0.085     20.77
   Zn(HS)2         6.145e-07   6.205e-07    -6.212    -6.207     0.004     (0)  
   Zn(HS)3-        6.404e-09   5.318e-09    -8.194    -8.274    -0.081     (0)  
   S-2             2.962e-10   1.436e-10    -9.528    -9.843    -0.314     (0)  
   Fe(HS)2         2.201e-17   2.223e-17   -16.657   -16.653     0.004     (0)  
   Fe(HS)3-        1.728e-18   1.435e-18   -17.762   -17.843    -0.081     (0)  
S(6)          1.722e-02
   SO4-2           1.722e-02   8.315e-03    -1.764    -2.080    -0.316     14.67
   HSO4-           4.854e-07   4.031e-07    -6.314    -6.395    -0.081     40.44
   ZnSO4           3.912e-15   3.951e-15   -14.408   -14.403     0.004     (0)  
   Zn(SO4)2-2      5.615e-16   2.670e-16   -15.251   -15.573    -0.323     (0)  
   FeSO4           1.039e-19   1.049e-19   -18.983   -18.979     0.004     (0)  
   FeHSO4+         4.141e-25   3.439e-25   -24.383   -24.464    -0.081     (0)  
   FeSO4+          1.347e-33   1.124e-33   -32.871   -32.949    -0.079     (0)  
   Fe(SO4)2-       2.462e-34   2.044e-34   -33.609   -33.689    -0.081     (0)  
   FeHSO4+2        3.156e-39   1.501e-39   -38.501   -38.824    -0.323     (0)  
Zn            6.209e-07
   Zn(HS)2         6.145e-07   6.205e-07    -6.212    -6.207     0.004     (0)  
   Zn(HS)3-        6.404e-09   5.318e-09    -8.194    -8.274    -0.081     (0)  
   Zn+2            4.180e-15   2.027e-15   -14.379   -14.693    -0.314    -23.80
   ZnHCO3+         3.997e-15   3.319e-15   -14.398   -14.479    -0.081     (0)  
   ZnSO4           3.912e-15   3.951e-15   -14.408   -14.403     0.004     (0)  
   Zn(SO4)2-2      5.615e-16   2.670e-16   -15.251   -15.573    -0.323     (0)  
   ZnCO3           4.899e-16   4.948e-16   -15.310   -15.306     0.004     (0)  
   Zn(CO3)2-2      2.722e-17   1.294e-17   -16.565   -16.888    -0.323     (0)  
   ZnOH+           5.363e-18   4.453e-18   -17.271   -17.351    -0.081     (0)  
   Zn(OH)2         1.015e-19   1.024e-19   -18.994   -18.989     0.004     (0)  
   Zn(OH)3-        7.818e-25   6.492e-25   -24.107   -24.188    -0.081     (0)  
   Zn(OH)4-2       4.336e-31   2.062e-31   -30.363   -30.686    -0.323     (0)  

------------------------------Saturation indices-------------------------------

	Phase               SI   log IAP   log K(298 K,   1 atm)

	CH4(g)           -3.10     -5.94   -2.84  CH4
	CO2(g)           -0.37     -1.84   -1.46  CO2
	Fe(OH)3(a)      -20.89    -16.00    4.89  Fe(OH)3
	FeS(ppt)        -12.16    -16.07   -3.92  FeS
	Goethite        -15.00    -16.00   -1.00  FeOOH
	H2(g)            -7.17    -10.27   -3.10  H2
	H2O(g)           -1.50     -0.00    1.50  H2O
	H2S(g)           -1.54     -9.53   -7.99  H2S
	Hematite        -28.00    -32.01   -4.01  Fe2O3
	Mackinawite     -11.43    -16.07   -4.65  FeS
	Melanterite     -19.02    -21.23   -2.21  FeSO4:7H2O
	O2(g)           -68.94    -71.83   -2.89  O2
	Pyrite           -0.00    -18.48  -18.48  FeS2
	Siderite        -14.17    -25.06  -10.89  FeCO3
	Smithsonite     -10.61    -20.61  -10.00  ZnCO3
	Sphalerite       -0.00    -11.62  -11.62  ZnS
	Sulfur           -0.35      4.54    4.88  S
	Zn(OH)2(e)      -13.59     -2.09   11.50  Zn(OH)2


------------------
End of simulation.
------------------

------------------------------------
Reading input data for simulation 2.
------------------------------------

------------------------------
End of Run after 0.01 Seconds.
------------------------------

