WARNING: Database file from DATABASE keyword is used; command line argument ignored.
   Input file: rate_xmpls
  Output file: rate_xmpls.out
Database file: ../database/phreeqc_rates.dat

------------------
Reading data base.
------------------

	SOLUTION_MASTER_SPECIES
	SOLUTION_SPECIES
	PHASES
	GAS_BINARY_PARAMETERS
	EXCHANGE_MASTER_SPECIES
	EXCHANGE_SPECIES
	SURFACE_MASTER_SPECIES
	SURFACE_SPECIES
	MEAN_GAMMAS
	RATES
	PHASES # defined for formulas and affinities of kinetic (mostly) dissolving minerals
	RATE_PARAMETERS_PK
	RATE_PARAMETERS_SVD
	RATE_PARAMETERS_HERMANSKA
------------------------------------
Reading input data for simulation 1.
------------------------------------

	DATABASE ../database/phreeqc_rates.dat
	SELECTED_OUTPUT 101
	    file                 rate_xmpls_101.sel
	USER_PUNCH 101
	    headings Mu SC
	    start
	10 PUNCH STR_F$(MU, 20, 12)
	20 PUNCH STR_F$(SC, 20, 10)
	RATES
	Albite_PK # Palandri and Kharaka, 2004
	5  REM PARMS: 1 affinity, 2 m^2/mol, 3 roughness, 4 exponent
	10 if parm(1) = 1 then affinity = 1 else affinity = 1 - SR("Albite") : if affinity < parm(1) then SAVE 0 : END
	20 rate = RATE_PK("Albite")
	30 IF M > 0 THEN area = M * parm(2) * parm(3) * (M/M0)^parm(4) ELSE area = 0
	40 SAVE area * rate * affinity * TIME
	end 
	KINETICS 1
	Albite_PK
	formula NaAlSi3O8
	 parms  0  1  1  0.67
	m0 1
	 time_steps 1 # default
	END
------------------
End of simulation.
------------------

------------------------------------
Reading input data for simulation 2.
------------------------------------

	SOLUTION 1
	PHASES 
	  Fix_pH
	 H+ = H+ 
	  LiBr
	 LiBr = Li+ + Br-
	 log_k -20  # (very) unsoluble phase with base cation and acid anion, permits to use HBr or LiOH as reactant 
	SELECTED_OUTPUT 1
	        file kinetic_rates_pH.inc 
	        reset false 
	USER_PUNCH 1    # write out the pH's to equilibrate... 
	        10 FOR i = 0 to 14 STEP 0.5
	        20      punch EOL$ + 'USE solution 1' 
	        30      punch EOL$ + 'EQUILIBRIUM_PHASES 1' 
	        40      punch EOL$ + ' LiBr' 
	        50      punch EOL$ + ' Fix_pH ' + TRIM(STR$(-i)) + ' LiOH 10' # ...or HBr as reactant 
	        60      punch EOL$ + 'USE kinetics 1' 
	        70      punch EOL$ + 'END' 
	        80 NEXT i 
	END 
-------------------------------------------
Beginning of initial solution calculations.
-------------------------------------------

Initial solution 1.	

WARNING: USER_PUNCH: Headings count does not match number of calls to PUNCH.

-----------------------------Solution composition------------------------------

	Elements           Molality       Moles

	Pure water     

----------------------------Description of solution----------------------------

                                       pH  =   7.000    
                                       pe  =   4.000    
      Specific Conductance (µS/cm,  25°C)  = 0
                          Density (g/cm³)  =   0.99704
                               Volume (L)  =   1.00297
                        Viscosity (mPa s)  =   0.89002
                        Activity of water  =   1.000
                 Ionic strength (mol/kgw)  =   1.007e-07
                       Mass of water (kg)  =   1.000e+00
                 Total alkalinity (eq/kg)  =   1.217e-09
                         Temperature (°C)  =  25.00
                  Electrical balance (eq)  =  -1.217e-09
 Percent error, 100*(Cat-|An|)/(Cat+|An|)  =  -0.60
                               Iterations  =   0
                                  Total H  = 1.110124e+02
                                  Total O  = 5.550622e+01

----------------------------Distribution of species----------------------------

                                               Log       Log       Log    mole V
   Species          Molality    Activity  Molality  Activity     Gamma   cm³/mol

   OH-             1.013e-07   1.012e-07    -6.995    -6.995    -0.000     -4.14
   H+              1.001e-07   1.000e-07    -7.000    -7.000    -0.000      0.00
   H2O             5.551e+01   1.000e+00     1.744     0.000     0.000     18.07
H(0)          1.416e-25
   H2              7.079e-26   7.079e-26   -25.150   -25.150     0.000     28.61
O(0)          0.000e+00
   O2              0.000e+00   0.000e+00   -42.080   -42.080     0.000     30.40

------------------------------Saturation indices-------------------------------

  Phase               SI** log IAP   log K(298 K,   1 atm)

  Fix_pH           -7.00     -7.00    0.00  H+
  H2(g)           -22.05    -25.15   -3.10  H2
  H2O(g)           -1.50      0.00    1.50  H2O
  O2(g)           -39.19    -42.08   -2.89  O2

**For a gas, SI = log10(fugacity). Fugacity = pressure * phi / 1 atm.
  For ideal gases, phi = 1.

------------------
End of simulation.
------------------

------------------------------------
Reading input data for simulation 3.
------------------------------------

	PRINT
	 reset false

	Reading data from kinetic_rates_pH.inc ...

	Reading data from kinetic_rates_pH.inc ...

	Reading data from kinetic_rates_pH.inc ...

	Reading data from kinetic_rates_pH.inc ...
WARNING: Element Al is contained in Kaolinite (which has 0.0 mass),	
but is not in solution or other phases.
WARNING: Element Si is contained in Kaolinite (which has 0.0 mass),	
but is not in solution or other phases.
WARNING: Element in phase, Kaolinite, is not in model.
WARNING: Element in phase, Kaolinite, is not in model.
WARNING: Element Al is contained in Kaolinite (which has 0.0 mass),	
but is not in solution or other phases.
WARNING: Element Si is contained in Kaolinite (which has 0.0 mass),	
but is not in solution or other phases.
