   Input file: rho_CaNaCl
  Output file: rho_CaNaCl.out
Database file: ../database/phreeqc.dat

------------------
Reading data base.
------------------

	SOLUTION_MASTER_SPECIES
	SOLUTION_SPECIES
	PHASES
	EXCHANGE_MASTER_SPECIES
	EXCHANGE_SPECIES
	SURFACE_MASTER_SPECIES
	SURFACE_SPECIES
	RATES
	END
------------------------------------
Reading input data for simulation 1.
------------------------------------

	DATABASE ../database/phreeqc.dat
	SOLUTION 1
	 pH 7 charge
	SOLUTION 1
	 pH 7 charge
	SELECTED_OUTPUT
	 file rho25.prn
	 reset false
	 selected_out true
	USER_GRAPH
	 -active false
	USER_PUNCH
	 10 data 0.010900, 0.011900, 0.017900, 0.018400, 0.018600, 0.020000, 0.022000, 0.025200, 0.027100, 0.030800, 0.035800, 0.036000, 0.036300, 0.037800, 0.040800, 0.046800, 0.048700, 0.056400, 0.056800, 0.057800, 0.058700, 0.062300, 0.065100, 0.072200, 0.075900, 0.079100, 0.095500, 0.096700, 0.099500, 0.106800, 0.109000, 0.111200, 0.113500, 0.118200, 0.122100, 0.132700, 0.132800, 0.146000, 0.155700, 0.160300, 0.172600, 0.180300, 0.184000, 0.184400, 0.184600, 0.190300, 0.200100, 0.200200, 0.205000, 0.208500, 0.208800, 0.216400, 0.228600, 0.231500, 0.234800, 0.239700, 0.266000, 0.275100, 0.275200, 0.285600, 0.294600, 0.304500, 0.307100, 0.311200, 0.319600, 0.322200, 0.329400, 0.351000, 0.362200, 0.363400, 0.380500, 0.389600, 0.390700, 0.391800, 0.404000, 0.407000, 0.421500, 0.421800, 0.425400, 0.438800, 0.449600, 0.478400, 0.481000, 0.485600, 0.491500, 0.492100, 0.494200, 0.499800, 0.534400, 0.537500, 0.547700, 0.570600, 0.571800, 0.575200, 0.578000, 0.594500, 0.613700, 0.620100, 0.623700, 0.629500, 0.664000, 0.666900, 0.667500, 0.674500, 0.710900, 0.716300, 0.740700, 0.741200, 0.762000, 0.766000, 0.784900, 0.811100, 0.821000, 0.821800, 0.831400, 0.851800, 0.879800, 0.880700, 0.881400, 0.886300, 0.906300, 0.913400, 0.924900, 0.946600, 0.960500, 0.965900, 0.985100, 1.007500, 1.011700, 1.017300, 1.031300, 1.033700, 1.061500, 1.061800, 1.066000, 1.111800, 1.146000, 1.149500, 1.156700, 1.163000, 1.168100, 1.172200, 1.199200, 1.201800, 1.207000, 1.221700, 1.228900, 1.267000, 1.305200, 1.321700, 1.331900, 1.361900, 1.400700, 1.402700, 1.461200, 1.479600, 1.503400, 1.605700, 1.637500, 1.651200, 1.706100, 1.717600, 1.724800, 1.737600, 1.746900, 1.748600, 1.787000, 1.804000, 1.822500, 1.843500, 1.919700, 1.926600, 1.939200, 1.951900, 1.952300, 1.960600, 1.971500, 2.015300, 2.149000, 2.177500, 2.207800, 2.392000, 2.487200, 2.487400, 2.577600, 2.656900, 2.671200, 2.875500, 2.884100, 3.034300, 3.086700, 3.241000, 3.353200, 
	 20 dim Ca(193)
	 22 restore 10
	 30 read Ca(1), Ca(2), Ca(3), Ca(4), Ca(5), Ca(6), Ca(7), Ca(8), Ca(9), Ca(10), Ca(11), Ca(12), Ca(13), Ca(14), Ca(15), Ca(16), Ca(17), Ca(18), Ca(19), Ca(20), Ca(21), Ca(22), Ca(23), Ca(24), Ca(25), Ca(26), Ca(27), Ca(28), Ca(29), Ca(30), Ca(31), Ca(32), Ca(33), Ca(34), Ca(35), Ca(36), Ca(37), Ca(38), Ca(39), Ca(40), Ca(41), Ca(42), Ca(43), Ca(44), Ca(45), Ca(46), Ca(47), Ca(48), Ca(49), Ca(50), Ca(51), Ca(52), Ca(53), Ca(54), Ca(55), Ca(56), Ca(57), Ca(58), Ca(59), Ca(60), Ca(61), Ca(62), Ca(63), Ca(64), Ca(65), Ca(66), Ca(67), Ca(68), Ca(69), Ca(70), Ca(71), Ca(72), Ca(73), Ca(74), Ca(75), Ca(76), Ca(77), Ca(78), Ca(79), Ca(80), Ca(81), Ca(82), Ca(83), Ca(84), Ca(85), Ca(86), Ca(87), Ca(88), Ca(89), Ca(90), Ca(91), Ca(92), Ca(93), Ca(94), Ca(95), Ca(96), Ca(97), Ca(98), Ca(99), Ca(100), Ca(101), Ca(102), Ca(103), Ca(104), Ca(105), Ca(106), Ca(107), Ca(108), Ca(109), Ca(110), Ca(111), Ca(112), Ca(113), Ca(114), Ca(115), Ca(116), Ca(117), Ca(118), Ca(119), Ca(120), Ca(121), Ca(122), Ca(123), Ca(124), Ca(125), Ca(126), Ca(127), Ca(128), Ca(129), Ca(130), Ca(131), Ca(132), Ca(133), Ca(134), Ca(135), Ca(136), Ca(137), Ca(138), Ca(139), Ca(140), Ca(141), Ca(142), Ca(143), Ca(144), Ca(145), Ca(146), Ca(147), Ca(148), Ca(149), Ca(150), Ca(151), Ca(152), Ca(153), Ca(154), Ca(155), Ca(156), Ca(157), Ca(158), Ca(159), Ca(160), Ca(161), Ca(162), Ca(163), Ca(164), Ca(165), Ca(166), Ca(167), Ca(168), Ca(169), Ca(170), Ca(171), Ca(172), Ca(173), Ca(174), Ca(175), Ca(176), Ca(177), Ca(178), Ca(179), Ca(180), Ca(181), Ca(182), Ca(183), Ca(184), Ca(185), Ca(186), Ca(187), Ca(188), Ca(189), Ca(190), Ca(191), Ca(192), Ca(193), 
	 40 data 0.003600, 0.087900, 0.050200, 0.136500, 0.018700, 0.060500, 0.022000, 0.025300, 0.009100, 0.037800, 0.100800, 0.101400, 0.016700, 0.279700, 0.013600, 0.141600, 0.147200, 0.069400, 0.420500, 0.057900, 0.019600, 0.062400, 0.196900, 0.203200, 0.076100, 0.036400, 0.031800, 0.716200, 2.662100, 0.106900, 0.306900, 0.136800, 0.037900, 0.357100, 0.369100, 0.982400, 0.133100, 0.411100, 0.071700, 1.186900, 0.212400, 0.180300, 0.061300, 0.185000, 0.519600, 0.574900, 4.452800, 0.200800, 1.518100, 0.630100, 2.376300, 0.609100, 1.693300, 0.231500, 0.289000, 0.110400, 0.748700, 0.275900, 2.037800, 0.351500, 2.066600, 0.101500, 0.864500, 0.312100, 0.147200, 0.973600, 2.439100, 3.993800, 0.445800, 0.121100, 0.380500, 2.885200, 0.130200, 1.102800, 1.221000, 0.187500, 1.273800, 0.421900, 1.759000, 1.326000, 3.329500, 1.346800, 0.592000, 3.596400, 0.226400, 0.164100, 3.362300, 1.510400, 1.614800, 3.980300, 1.655200, 0.570600, 1.451400, 1.619300, 0.266200, 0.596200, 4.545100, 1.873700, 0.767600, 0.629600, 2.882600, 1.877400, 1.202300, 2.038400, 0.865500, 0.329900, 0.246900, 0.743400, 0.937800, 0.768300, 2.209500, 0.589600, 2.389100, 0.824200, 2.512400, 0.392300, 2.476800, 1.083900, 2.663500, 0.287900, 0.908900, 2.760000, 0.925000, 0.946700, 2.902400, 1.949200, 2.773000, 3.044400, 0.337300, 3.074000, 1.031500, 1.036700, 0.488900, 3.208400, 1.311900, 3.129700, 1.146200, 3.235900, 1.156900, 1.166400, 1.435900, 3.542000, 1.199300, 1.205200, 1.210500, 3.439300, 1.512400, 0.583600, 0.939800, 1.321900, 1.332100, 0.454000, 1.723900, 1.402800, 0.491700, 0.681500, 1.507800, 1.976200, 1.642200, 1.651300, 0.658600, 0.572700, 1.725000, 0.800300, 1.752000, 2.152000, 1.792100, 1.804200, 0.703500, 1.848900, 1.925200, 0.743700, 1.939400, 2.402300, 1.958000, 0.903100, 0.657300, 2.021200, 0.716500, 1.003000, 0.852200, 0.923300, 0.829200, 1.145700, 1.187300, 0.885800, 1.031100, 1.109900, 0.961600, 1.011700, 1.029100, 1.080600, 1.118000, 
	 50 dim Na(193)
	 52 restore 40
	 60 read Na(1), Na(2), Na(3), Na(4), Na(5), Na(6), Na(7), Na(8), Na(9), Na(10), Na(11), Na(12), Na(13), Na(14), Na(15), Na(16), Na(17), Na(18), Na(19), Na(20), Na(21), Na(22), Na(23), Na(24), Na(25), Na(26), Na(27), Na(28), Na(29), Na(30), Na(31), Na(32), Na(33), Na(34), Na(35), Na(36), Na(37), Na(38), Na(39), Na(40), Na(41), Na(42), Na(43), Na(44), Na(45), Na(46), Na(47), Na(48), Na(49), Na(50), Na(51), Na(52), Na(53), Na(54), Na(55), Na(56), Na(57), Na(58), Na(59), Na(60), Na(61), Na(62), Na(63), Na(64), Na(65), Na(66), Na(67), Na(68), Na(69), Na(70), Na(71), Na(72), Na(73), Na(74), Na(75), Na(76), Na(77), Na(78), Na(79), Na(80), Na(81), Na(82), Na(83), Na(84), Na(85), Na(86), Na(87), Na(88), Na(89), Na(90), Na(91), Na(92), Na(93), Na(94), Na(95), Na(96), Na(97), Na(98), Na(99), Na(100), Na(101), Na(102), Na(103), Na(104), Na(105), Na(106), Na(107), Na(108), Na(109), Na(110), Na(111), Na(112), Na(113), Na(114), Na(115), Na(116), Na(117), Na(118), Na(119), Na(120), Na(121), Na(122), Na(123), Na(124), Na(125), Na(126), Na(127), Na(128), Na(129), Na(130), Na(131), Na(132), Na(133), Na(134), Na(135), Na(136), Na(137), Na(138), Na(139), Na(140), Na(141), Na(142), Na(143), Na(144), Na(145), Na(146), Na(147), Na(148), Na(149), Na(150), Na(151), Na(152), Na(153), Na(154), Na(155), Na(156), Na(157), Na(158), Na(159), Na(160), Na(161), Na(162), Na(163), Na(164), Na(165), Na(166), Na(167), Na(168), Na(169), Na(170), Na(171), Na(172), Na(173), Na(174), Na(175), Na(176), Na(177), Na(178), Na(179), Na(180), Na(181), Na(182), Na(183), Na(184), Na(185), Na(186), Na(187), Na(188), Na(189), Na(190), Na(191), Na(192), Na(193), 
	 70 data 1.000000, 1.000000, 1.000000, 1.000000, 1.000000, 1.000000, 1.000000, 1.000000, 1.000000, 1.000000, 1.000000, 1.000000, 1.000000, 1.000000, 1.000000, 1.000000, 1.000000, 1.000000, 1.000000, 1.000000, 1.000000, 1.000000, 1.000000, 1.000000, 1.000000, 1.000000, 1.000000, 1.000000, 1.000000, 1.000000, 1.000000, 1.000000, 1.000000, 1.000000, 1.000000, 1.000000, 1.000000, 1.000000, 1.000000, 1.000000, 1.000000, 1.000000, 1.000000, 1.000000, 1.000000, 1.000000, 1.000000, 1.000000, 1.000000, 1.000000, 1.000000, 1.000000, 1.000000, 1.000000, 1.000000, 1.000000, 1.000000, 1.000000, 1.000000, 1.000000, 1.000000, 1.000000, 1.000000, 1.000000, 1.000000, 1.000000, 1.000000, 1.000000, 1.000000, 1.000000, 1.000000, 1.000000, 1.000000, 1.000000, 1.000000, 1.000000, 1.000000, 1.000000, 1.000000, 1.000000, 1.000000, 1.000000, 1.000000, 1.000000, 1.000000, 1.000000, 1.000000, 1.000000, 1.000000, 1.000000, 1.000000, 1.000000, 1.000000, 1.000000, 1.000000, 1.000000, 1.000000, 1.000000, 1.000000, 1.000000, 1.000000, 1.000000, 1.000000, 1.000000, 1.000000, 1.000000, 1.000000, 1.000000, 1.000000, 1.000000, 1.000000, 1.000000, 1.000000, 1.000000, 1.000000, 1.000000, 1.000000, 1.000000, 1.000000, 1.000000, 1.000000, 1.000000, 1.000000, 1.000000, 1.000000, 1.000000, 1.000000, 1.000000, 1.000000, 1.000000, 1.000000, 1.000000, 1.000000, 1.000000, 1.000000, 1.000000, 1.000000, 1.000000, 1.000000, 1.000000, 1.000000, 1.000000, 1.000000, 1.000000, 1.000000, 1.000000, 1.000000, 1.000000, 1.000000, 1.000000, 1.000000, 1.000000, 1.000000, 1.000000, 1.000000, 1.000000, 1.000000, 1.000000, 1.000000, 1.000000, 1.000000, 1.000000, 1.000000, 1.000000, 1.000000, 1.000000, 1.000000, 1.000000, 1.000000, 1.000000, 1.000000, 1.000000, 1.000000, 1.000000, 1.000000, 1.000000, 1.000000, 1.000000, 1.000000, 1.000000, 1.000000, 1.000000, 1.000000, 1.000000, 1.000000, 1.000000, 1.000000, 1.000000, 1.000000, 1.000000, 1.000000, 1.000000, 1.000000, 
	 80 dim Cl(193)
	 82 restore 70
	 90 read Cl(1), Cl(2), Cl(3), Cl(4), Cl(5), Cl(6), Cl(7), Cl(8), Cl(9), Cl(10), Cl(11), Cl(12), Cl(13), Cl(14), Cl(15), Cl(16), Cl(17), Cl(18), Cl(19), Cl(20), Cl(21), Cl(22), Cl(23), Cl(24), Cl(25), Cl(26), Cl(27), Cl(28), Cl(29), Cl(30), Cl(31), Cl(32), Cl(33), Cl(34), Cl(35), Cl(36), Cl(37), Cl(38), Cl(39), Cl(40), Cl(41), Cl(42), Cl(43), Cl(44), Cl(45), Cl(46), Cl(47), Cl(48), Cl(49), Cl(50), Cl(51), Cl(52), Cl(53), Cl(54), Cl(55), Cl(56), Cl(57), Cl(58), Cl(59), Cl(60), Cl(61), Cl(62), Cl(63), Cl(64), Cl(65), Cl(66), Cl(67), Cl(68), Cl(69), Cl(70), Cl(71), Cl(72), Cl(73), Cl(74), Cl(75), Cl(76), Cl(77), Cl(78), Cl(79), Cl(80), Cl(81), Cl(82), Cl(83), Cl(84), Cl(85), Cl(86), Cl(87), Cl(88), Cl(89), Cl(90), Cl(91), Cl(92), Cl(93), Cl(94), Cl(95), Cl(96), Cl(97), Cl(98), Cl(99), Cl(100), Cl(101), Cl(102), Cl(103), Cl(104), Cl(105), Cl(106), Cl(107), Cl(108), Cl(109), Cl(110), Cl(111), Cl(112), Cl(113), Cl(114), Cl(115), Cl(116), Cl(117), Cl(118), Cl(119), Cl(120), Cl(121), Cl(122), Cl(123), Cl(124), Cl(125), Cl(126), Cl(127), Cl(128), Cl(129), Cl(130), Cl(131), Cl(132), Cl(133), Cl(134), Cl(135), Cl(136), Cl(137), Cl(138), Cl(139), Cl(140), Cl(141), Cl(142), Cl(143), Cl(144), Cl(145), Cl(146), Cl(147), Cl(148), Cl(149), Cl(150), Cl(151), Cl(152), Cl(153), Cl(154), Cl(155), Cl(156), Cl(157), Cl(158), Cl(159), Cl(160), Cl(161), Cl(162), Cl(163), Cl(164), Cl(165), Cl(166), Cl(167), Cl(168), Cl(169), Cl(170), Cl(171), Cl(172), Cl(173), Cl(174), Cl(175), Cl(176), Cl(177), Cl(178), Cl(179), Cl(180), Cl(181), Cl(182), Cl(183), Cl(184), Cl(185), Cl(186), Cl(187), Cl(188), Cl(189), Cl(190), Cl(191), Cl(192), Cl(193), 
	 100 data 998.200000, 1001.750000, 1000.760000, 1004.330000, 999.600000, 1001.400000, 1000.200000, 1000.500000, 1000.000000, 1001.440000, 1004.430000, 1004.470000, 1001.070000, 1011.780000, 1001.400000, 1007.000000, 1007.400000, 1005.020000, 1019.000000, 1004.800000, 1003.200000, 1005.400000, 1010.900000, 1011.770000, 1007.200000, 1005.730000, 1007.100000, 1033.820000, 1102.930000, 1011.100000, 1019.070000, 1012.620000, 1008.900000, 1021.800000, 1022.700000, 1046.780000, 1014.500000, 1026.320000, 1013.960000, 1056.520000, 1021.000000, 1020.400000, 1016.200000, 1021.000000, 1033.770000, 1036.200000, 1165.210000, 1022.900000, 1071.920000, 1039.900000, 1101.640000, 1039.830000, 1079.880000, 1026.800000, 1029.360000, 1022.850000, 1049.140000, 1032.300000, 1095.220000, 1036.090000, 1097.780000, 1028.200000, 1056.750000, 1035.800000, 1031.170000, 1061.700000, 1112.520000, 1162.270000, 1046.100000, 1034.000000, 1045.100000, 1131.110000, 1036.700000, 1072.130000, 1076.900000, 1040.180000, 1080.100000, 1050.000000, 1097.430000, 1083.300000, 1149.010000, 1087.440000, 1061.860000, 1159.440000, 1048.740000, 1046.600000, 1153.330000, 1094.200000, 1100.300000, 1174.150000, 1102.700000, 1067.700000, 1098.160000, 1104.410000, 1057.410000, 1070.300000, 1195.040000, 1115.200000, 1079.110000, 1076.700000, 1150.710000, 1119.370000, 1096.950000, 1124.400000, 1088.340000, 1071.020000, 1070.200000, 1087.200000, 1095.870000, 1089.900000, 1138.500000, 1086.510000, 1146.540000, 1096.200000, 1150.400000, 1084.100000, 1153.420000, 1109.900000, 1158.300000, 1081.710000, 1105.400000, 1163.300000, 1107.600000, 1109.900000, 1170.800000, 1143.250000, 1169.530000, 1177.900000, 1095.000000, 1179.600000, 1119.100000, 1119.200000, 1103.850000, 1186.000000, 1131.150000, 1188.370000, 1131.200000, 1193.830000, 1132.300000, 1132.900000, 1141.900000, 1202.800000, 1136.800000, 1137.000000, 1137.500000, 1204.210000, 1149.270000, 1122.610000, 1136.190000, 1149.400000, 1150.400000, 1125.600000, 1167.820000, 1157.600000, 1133.560000, 1141.490000, 1167.600000, 1189.240000, 1180.700000, 1181.900000, 1157.130000, 1155.500000, 1189.000000, 1163.700000, 1191.200000, 1203.750000, 1195.000000, 1196.800000, 1166.750000, 1200.300000, 1207.400000, 1175.220000, 1209.500000, 1223.810000, 1210.500000, 1182.310000, 1176.000000, 1216.500000, 1190.000000, 1199.890000, 1197.600000, 1211.860000, 1215.700000, 1224.220000, 1231.120000, 1228.200000, 1232.870000, 1247.820000, 1244.700000, 1255.400000, 1259.000000, 1269.700000, 1277.500000, 
	 110 dim rho_m(193)
	 112 restore 100
	 120 read rho_m(1), rho_m(2), rho_m(3), rho_m(4), rho_m(5), rho_m(6), rho_m(7), rho_m(8), rho_m(9), rho_m(10), rho_m(11), rho_m(12), rho_m(13), rho_m(14), rho_m(15), rho_m(16), rho_m(17), rho_m(18), rho_m(19), rho_m(20), rho_m(21), rho_m(22), rho_m(23), rho_m(24), rho_m(25), rho_m(26), rho_m(27), rho_m(28), rho_m(29), rho_m(30), rho_m(31), rho_m(32), rho_m(33), rho_m(34), rho_m(35), rho_m(36), rho_m(37), rho_m(38), rho_m(39), rho_m(40), rho_m(41), rho_m(42), rho_m(43), rho_m(44), rho_m(45), rho_m(46), rho_m(47), rho_m(48), rho_m(49), rho_m(50), rho_m(51), rho_m(52), rho_m(53), rho_m(54), rho_m(55), rho_m(56), rho_m(57), rho_m(58), rho_m(59), rho_m(60), rho_m(61), rho_m(62), rho_m(63), rho_m(64), rho_m(65), rho_m(66), rho_m(67), rho_m(68), rho_m(69), rho_m(70), rho_m(71), rho_m(72), rho_m(73), rho_m(74), rho_m(75), rho_m(76), rho_m(77), rho_m(78), rho_m(79), rho_m(80), rho_m(81), rho_m(82), rho_m(83), rho_m(84), rho_m(85), rho_m(86), rho_m(87), rho_m(88), rho_m(89), rho_m(90), rho_m(91), rho_m(92), rho_m(93), rho_m(94), rho_m(95), rho_m(96), rho_m(97), rho_m(98), rho_m(99), rho_m(100), rho_m(101), rho_m(102), rho_m(103), rho_m(104), rho_m(105), rho_m(106), rho_m(107), rho_m(108), rho_m(109), rho_m(110), rho_m(111), rho_m(112), rho_m(113), rho_m(114), rho_m(115), rho_m(116), rho_m(117), rho_m(118), rho_m(119), rho_m(120), rho_m(121), rho_m(122), rho_m(123), rho_m(124), rho_m(125), rho_m(126), rho_m(127), rho_m(128), rho_m(129), rho_m(130), rho_m(131), rho_m(132), rho_m(133), rho_m(134), rho_m(135), rho_m(136), rho_m(137), rho_m(138), rho_m(139), rho_m(140), rho_m(141), rho_m(142), rho_m(143), rho_m(144), rho_m(145), rho_m(146), rho_m(147), rho_m(148), rho_m(149), rho_m(150), rho_m(151), rho_m(152), rho_m(153), rho_m(154), rho_m(155), rho_m(156), rho_m(157), rho_m(158), rho_m(159), rho_m(160), rho_m(161), rho_m(162), rho_m(163), rho_m(164), rho_m(165), rho_m(166), rho_m(167), rho_m(168), rho_m(169), rho_m(170), rho_m(171), rho_m(172), rho_m(173), rho_m(174), rho_m(175), rho_m(176), rho_m(177), rho_m(178), rho_m(179), rho_m(180), rho_m(181), rho_m(182), rho_m(183), rho_m(184), rho_m(185), rho_m(186), rho_m(187), rho_m(188), rho_m(189), rho_m(190), rho_m(191), rho_m(192), rho_m(193), 
	800 for i = 1 to 193
	810   punch 'SOLUTION '+ str$(i),  EOL$
	820   punch ' -temp 25.000000 ', EOL$
	822   punch ' -pressure 1.000000 ', EOL$
	830   punch ' Ca ', Ca(i) * 1e3,  EOL$
	831   punch ' Na ', Na(i) * 1e3,  EOL$
	832   punch ' Cl 100 charge ' + EOL$
	850   punch 'USER_GRAPH' + EOL$
	852   if i = 1 then punch '-headings 25.oC__1.atm' + EOL$
	854   punch '-active true' + EOL$
	860   punch '-initial_solutions true' + EOL$
	870   punch '10 plot_xy ', rho_m(i), ', rho * 1e3, line_width = 0, symbol = Square, color = Red' + EOL$
	880   punch 'END' + EOL$
	890 next i
	END
-------------------------------------------
Beginning of initial solution calculations.
-------------------------------------------

Initial solution 1.	

WARNING: USER_PUNCH: Headings count doesn't match number of calls to PUNCH.

WARNING: USER_PUNCH: Headings count doesn't match number of calls to PUNCH.

-----------------------------Solution composition------------------------------

	Elements           Molality       Moles

	Pure water     

----------------------------Description of solution----------------------------

                                       pH  =   7.000      Charge balance
                                       pe  =   4.000    
       Specific Conductance (uS/cm, 25 oC) = 0
                          Density (g/cm3)  =   0.99705
                        Activity of water  =   1.000
                           Ionic strength  =   1.001e-07
                       Mass of water (kg)  =   1.000e+00
                 Total alkalinity (eq/kg)  =   6.310e-18
                    Total carbon (mol/kg)  =   0.000e+00
                       Total CO2 (mol/kg)  =   0.000e+00
                      Temperature (deg C)  =  25.00
                  Electrical balance (eq)  =  -6.310e-18
 Percent error, 100*(Cat-|An|)/(Cat+|An|)  =  -0.00
                               Iterations  =   2
                                  Total H  = 1.110124e+02
                                  Total O  = 5.550622e+01

----------------------------Distribution of species----------------------------

                                               Log       Log       Log    mole V
   Species          Molality    Activity  Molality  Activity     Gamma   cm3/mol

   OH-             1.001e-07   1.001e-07    -6.999    -7.000    -0.000     -4.11
   H+              1.001e-07   1.001e-07    -6.999    -7.000    -0.000      0.00
   H2O             5.551e+01   1.000e+00     1.744    -0.000     0.000     18.07
H(0)          1.419e-25
   H2              7.095e-26   7.095e-26   -25.149   -25.149     0.000     28.61
O(0)          0.000e+00
   O2              0.000e+00   0.000e+00   -42.082   -42.082     0.000     30.40

------------------------------Saturation indices-------------------------------

	Phase               SI   log IAP   log K(298 K,   1 atm)

	H2(g)           -22.05    -25.15   -3.10  H2
	H2O(g)           -1.50     -0.00    1.50  H2O
	O2(g)           -39.19    -42.08   -2.89  O2


------------------
End of simulation.
------------------

------------------------------------
Reading input data for simulation 2.
------------------------------------

	PRINT
	 selected_output false
	 echo_input false
-------------------------------------------
Beginning of initial solution calculations.
-------------------------------------------

Initial solution 1.	

-----------------------------Solution composition------------------------------

	Elements           Molality       Moles

	Ca                1.090e-02   1.090e-02
	Cl                2.540e-02   2.540e-02  Charge balance
	Na                3.600e-03   3.600e-03

----------------------------Description of solution----------------------------

                                       pH  =   7.000    
                                       pe  =   4.000    
       Specific Conductance (uS/cm, 25 oC) = 2876
                          Density (g/cm3)  =   0.99820
                        Activity of water  =   0.999
                           Ionic strength  =   3.630e-02
                       Mass of water (kg)  =   1.000e+00
                 Total alkalinity (eq/kg)  =   1.599e-08
                    Total carbon (mol/kg)  =   0.000e+00
                       Total CO2 (mol/kg)  =   0.000e+00
                      Temperature (deg C)  =  25.00
                  Electrical balance (eq)  =  -2.829e-13
 Percent error, 100*(Cat-|An|)/(Cat+|An|)  =  -0.00
                               Iterations  =   6
                                  Total H  = 1.110124e+02
                                  Total O  = 5.550622e+01

----------------------------Distribution of species----------------------------

                                               Log       Log       Log    mole V
   Species          Molality    Activity  Molality  Activity     Gamma   cm3/mol

   OH-             1.203e-07   1.002e-07    -6.920    -6.999    -0.080     -3.88
   H+              1.154e-07   1.000e-07    -6.938    -7.000    -0.062      0.00
   H2O             5.551e+01   9.993e-01     1.744    -0.000     0.000     18.07
Ca            1.090e-02
   Ca+2            1.090e-02   5.589e-03    -1.963    -2.253    -0.290    -17.80
   CaOH+           1.104e-08   9.270e-09    -7.957    -8.033    -0.076     (0)  
Cl            2.540e-02
   Cl-             2.540e-02   2.117e-02    -1.595    -1.674    -0.079     18.21
H(0)          1.404e-25
   H2              7.021e-26   7.079e-26   -25.154   -25.150     0.004     28.61
Na            3.600e-03
   Na+             3.600e-03   3.029e-03    -2.444    -2.519    -0.075     -1.07
   NaOH            3.008e-20   3.034e-20   -19.522   -19.518     0.004     (0)  
O(0)          0.000e+00
   O2              0.000e+00   0.000e+00   -42.084   -42.081     0.004     30.40

------------------------------Saturation indices-------------------------------

	Phase               SI   log IAP   log K(298 K,   1 atm)

	H2(g)           -22.05    -25.15   -3.10  H2
	H2O(g)           -1.50     -0.00    1.50  H2O
	Halite           -5.78     -4.19    1.58  NaCl
	O2(g)           -39.19    -42.08   -2.89  O2


------------------
End of simulation.
------------------

------------------------------------
Reading input data for simulation 3.
------------------------------------

-------------------------------------------
Beginning of initial solution calculations.
-------------------------------------------

Initial solution 2.	

-----------------------------Solution composition------------------------------

	Elements           Molality       Moles

	Ca                1.190e-02   1.190e-02
	Cl                1.117e-01   1.117e-01  Charge balance
	Na                8.790e-02   8.790e-02

----------------------------Description of solution----------------------------

                                       pH  =   7.000    
                                       pe  =   4.000    
       Specific Conductance (uS/cm, 25 oC) = 11838
                          Density (g/cm3)  =   1.00173
                        Activity of water  =   0.996
                           Ionic strength  =   1.236e-01
                       Mass of water (kg)  =   1.000e+00
                 Total alkalinity (eq/kg)  =   2.096e-08
                    Total carbon (mol/kg)  =   0.000e+00
                       Total CO2 (mol/kg)  =   0.000e+00
                      Temperature (deg C)  =  25.00
                  Electrical balance (eq)  =  -1.491e-16
 Percent error, 100*(Cat-|An|)/(Cat+|An|)  =  -0.00
                               Iterations  =   9
                                  Total H  = 1.110124e+02
                                  Total O  = 5.550622e+01

----------------------------Distribution of species----------------------------

                                               Log       Log       Log    mole V
   Species          Molality    Activity  Molality  Activity     Gamma   cm3/mol

   OH-             1.340e-07   9.986e-08    -6.873    -7.001    -0.128     -3.59
   H+              1.224e-07   1.000e-07    -6.912    -7.000    -0.088      0.00
   H2O             5.551e+01   9.964e-01     1.744    -0.002     0.000     18.07
Ca            1.190e-02
   Ca+2            1.190e-02   4.378e-03    -1.924    -2.359    -0.434    -17.47
   CaOH+           9.407e-09   7.239e-09    -8.027    -8.140    -0.114     (0)  
Cl            1.117e-01
   Cl-             1.117e-01   8.360e-02    -0.952    -1.078    -0.126     18.35
H(0)          1.376e-25
   H2              6.881e-26   7.079e-26   -25.162   -25.150     0.012     28.61
Na            8.790e-02
   Na+             8.790e-02   6.770e-02    -1.056    -1.169    -0.113     -0.95
   NaOH            6.571e-19   6.761e-19   -18.182   -18.170     0.012     (0)  
O(0)          0.000e+00
   O2              0.000e+00   0.000e+00   -42.095   -42.083     0.012     30.40

------------------------------Saturation indices-------------------------------

	Phase               SI   log IAP   log K(298 K,   1 atm)

	H2(g)           -22.05    -25.15   -3.10  H2
	H2O(g)           -1.50     -0.00    1.50  H2O
	Halite           -3.83     -2.25    1.58  NaCl
	O2(g)           -39.19    -42.08   -2.89  O2


------------------
End of simulation.
------------------

------------------------------------
Reading input data for simulation 4.
------------------------------------

-------------------------------------------
Beginning of initial solution calculations.
-------------------------------------------

Initial solution 3.	

-----------------------------Solution composition------------------------------

	Elements           Molality       Moles

	Ca                1.790e-02   1.790e-02
	Cl                8.600e-02   8.600e-02  Charge balance
	Na                5.020e-02   5.020e-02

----------------------------Description of solution----------------------------

                                       pH  =   7.000    
                                       pe  =   4.000    
       Specific Conductance (uS/cm, 25 oC) = 9153
                          Density (g/cm3)  =   1.00074
                        Activity of water  =   0.997
                           Ionic strength  =   1.039e-01
                       Mass of water (kg)  =   1.000e+00
                 Total alkalinity (eq/kg)  =   2.507e-08
                    Total carbon (mol/kg)  =   0.000e+00
                       Total CO2 (mol/kg)  =   0.000e+00
                      Temperature (deg C)  =  25.00
                  Electrical balance (eq)  =  -3.530e-14
 Percent error, 100*(Cat-|An|)/(Cat+|An|)  =  -0.00
                               Iterations  =   9
                                  Total H  = 1.110124e+02
                                  Total O  = 5.550622e+01

----------------------------Distribution of species----------------------------

                                               Log       Log       Log    mole V
   Species          Molality    Activity  Molality  Activity     Gamma   cm3/mol

   OH-             1.318e-07   9.996e-08    -6.880    -7.000    -0.120     -3.65
   H+              1.214e-07   1.000e-07    -6.916    -7.000    -0.084      0.00
   H2O             5.551e+01   9.974e-01     1.744    -0.001     0.000     18.07
Ca            1.790e-02
   Ca+2            1.790e-02   6.919e-03    -1.747    -2.160    -0.413    -17.52
   CaOH+           1.470e-08   1.145e-08    -7.833    -7.941    -0.108     (0)  
Cl            8.600e-02
   Cl-             8.600e-02   6.548e-02    -1.066    -1.184    -0.118     18.33
H(0)          1.382e-25
   H2              6.912e-26   7.079e-26   -25.160   -25.150     0.010     28.61
Na            5.020e-02
   Na+             5.020e-02   3.918e-02    -1.299    -1.407    -0.108     -0.97
   NaOH            3.823e-19   3.916e-19   -18.418   -18.407     0.010     (0)  
O(0)          0.000e+00
   O2              0.000e+00   0.000e+00   -42.093   -42.082     0.010     30.40

------------------------------Saturation indices-------------------------------

	Phase               SI   log IAP   log K(298 K,   1 atm)

	H2(g)           -22.05    -25.15   -3.10  H2
	H2O(g)           -1.50     -0.00    1.50  H2O
	Halite           -4.17     -2.59    1.58  NaCl
	O2(g)           -39.19    -42.08   -2.89  O2


------------------
End of simulation.
------------------

------------------------------------
Reading input data for simulation 5.
------------------------------------

-------------------------------------------
Beginning of initial solution calculations.
-------------------------------------------

Initial solution 4.	

-----------------------------Solution composition------------------------------

	Elements           Molality       Moles

	Ca                1.840e-02   1.840e-02
	Cl                1.733e-01   1.733e-01  Charge balance
	Na                1.365e-01   1.365e-01

----------------------------Description of solution----------------------------

                                       pH  =   7.000    
                                       pe  =   4.000    
       Specific Conductance (uS/cm, 25 oC) = 17883
                          Density (g/cm3)  =   1.00428
                        Activity of water  =   0.994
                           Ionic strength  =   1.917e-01
                       Mass of water (kg)  =   1.000e+00
                 Total alkalinity (eq/kg)  =   2.838e-08
                    Total carbon (mol/kg)  =   0.000e+00
                       Total CO2 (mol/kg)  =   0.000e+00
                      Temperature (deg C)  =  25.00
                  Electrical balance (eq)  =  -2.717e-11
 Percent error, 100*(Cat-|An|)/(Cat+|An|)  =  -0.00
                               Iterations  =   8
                                  Total H  = 1.110124e+02
                                  Total O  = 5.550622e+01

----------------------------Distribution of species----------------------------

                                               Log       Log       Log    mole V
   Species          Molality    Activity  Molality  Activity     Gamma   cm3/mol

   OH-             1.403e-07   9.966e-08    -6.853    -7.001    -0.149     -3.40
   H+              1.251e-07   1.000e-07    -6.903    -7.000    -0.097      0.00
   H2O             5.551e+01   9.944e-01     1.744    -0.002     0.000     18.07
Ca            1.840e-02
   Ca+2            1.840e-02   5.982e-03    -1.735    -2.223    -0.488    -17.31
   CaOH+           1.320e-08   9.873e-09    -7.880    -8.006    -0.126     (0)  
Cl            1.733e-01
   Cl-             1.733e-01   1.239e-01    -0.761    -0.907    -0.146     18.43
H(0)          1.355e-25
   H2              6.774e-26   7.079e-26   -25.169   -25.150     0.019     28.61
Na            1.365e-01
   Na+             1.365e-01   1.018e-01    -0.865    -0.992    -0.127     -0.89
   NaOH            9.708e-19   1.015e-18   -18.013   -17.994     0.019     (0)  
O(0)          0.000e+00
   O2              0.000e+00   0.000e+00   -42.104   -42.085     0.019     30.40

------------------------------Saturation indices-------------------------------

	Phase               SI   log IAP   log K(298 K,   1 atm)

	H2(g)           -22.05    -25.15   -3.10  H2
	H2O(g)           -1.51     -0.00    1.50  H2O
	Halite           -3.48     -1.90    1.58  NaCl
	O2(g)           -39.19    -42.08   -2.89  O2


------------------
End of simulation.
------------------

------------------------------------
Reading input data for simulation 6.
------------------------------------

-------------------------------------------
Beginning of initial solution calculations.
-------------------------------------------

Initial solution 5.	

-----------------------------Solution composition------------------------------

	Elements           Molality       Moles

	Ca                1.860e-02   1.860e-02
	Cl                5.590e-02   5.590e-02  Charge balance
	Na                1.870e-02   1.870e-02

----------------------------Description of solution----------------------------

                                       pH  =   7.000    
                                       pe  =   4.000    
       Specific Conductance (uS/cm, 25 oC) = 6044
                          Density (g/cm3)  =   0.99952
                        Activity of water  =   0.998
                           Ionic strength  =   7.450e-02
                       Mass of water (kg)  =   1.000e+00
                 Total alkalinity (eq/kg)  =   2.469e-08
                    Total carbon (mol/kg)  =   0.000e+00
                       Total CO2 (mol/kg)  =   0.000e+00
                      Temperature (deg C)  =  25.00
                  Electrical balance (eq)  =  -6.314e-12
 Percent error, 100*(Cat-|An|)/(Cat+|An|)  =  -0.00
                               Iterations  =   8
                                  Total H  = 1.110124e+02
                                  Total O  = 5.550622e+01

----------------------------Distribution of species----------------------------

                                               Log       Log       Log    mole V
   Species          Molality    Activity  Molality  Activity     Gamma   cm3/mol

   OH-             1.277e-07   1.001e-07    -6.894    -7.000    -0.106     -3.74
   H+              1.194e-07   1.000e-07    -6.923    -7.000    -0.077      0.00
   H2O             5.551e+01   9.984e-01     1.744    -0.001     0.000     18.07
Ca            1.860e-02
   Ca+2            1.860e-02   7.895e-03    -1.730    -2.103    -0.372    -17.62
   CaOH+           1.639e-08   1.308e-08    -7.785    -7.883    -0.098     (0)  
Cl            5.590e-02
   Cl-             5.590e-02   4.391e-02    -1.253    -1.357    -0.105     18.28
H(0)          1.392e-25
   H2              6.959e-26   7.079e-26   -25.157   -25.150     0.007     28.61
Na            1.870e-02
   Na+             1.870e-02   1.496e-02    -1.728    -1.825    -0.097     -1.01
   NaOH            1.472e-19   1.497e-19   -18.832   -18.825     0.007     (0)  
O(0)          0.000e+00
   O2              0.000e+00   0.000e+00   -42.089   -42.081     0.007     30.40

------------------------------Saturation indices-------------------------------

	Phase               SI   log IAP   log K(298 K,   1 atm)

	H2(g)           -22.05    -25.15   -3.10  H2
	H2O(g)           -1.50     -0.00    1.50  H2O
	Halite           -4.76     -3.18    1.58  NaCl
	O2(g)           -39.19    -42.08   -2.89  O2


------------------
End of simulation.
------------------

------------------------------------
Reading input data for simulation 7.
------------------------------------

-------------------------------------------
Beginning of initial solution calculations.
-------------------------------------------

Initial solution 6.	

-----------------------------Solution composition------------------------------

	Elements           Molality       Moles

	Ca                2.000e-02   2.000e-02
	Cl                1.005e-01   1.005e-01  Charge balance
	Na                6.050e-02   6.050e-02

----------------------------Description of solution----------------------------

                                       pH  =   7.000    
                                       pe  =   4.000    
       Specific Conductance (uS/cm, 25 oC) = 10600
                          Density (g/cm3)  =   1.00135
                        Activity of water  =   0.997
                           Ionic strength  =   1.205e-01
                       Mass of water (kg)  =   1.000e+00
                 Total alkalinity (eq/kg)  =   2.733e-08
                    Total carbon (mol/kg)  =   0.000e+00
                       Total CO2 (mol/kg)  =   0.000e+00
                      Temperature (deg C)  =  25.00
                  Electrical balance (eq)  =  -1.786e-15
 Percent error, 100*(Cat-|An|)/(Cat+|An|)  =  -0.00
                               Iterations  =   9
                                  Total H  = 1.110124e+02
                                  Total O  = 5.550622e+01

----------------------------Distribution of species----------------------------

                                               Log       Log       Log    mole V
   Species          Molality    Activity  Molality  Activity     Gamma   cm3/mol

   OH-             1.337e-07   9.991e-08    -6.874    -7.000    -0.127     -3.60
   H+              1.223e-07   1.000e-07    -6.913    -7.000    -0.087      0.00
   H2O             5.551e+01   9.969e-01     1.744    -0.001     0.000     18.07
Ca            2.000e-02
   Ca+2            2.000e-02   7.411e-03    -1.699    -2.130    -0.431    -17.48
   CaOH+           1.590e-08   1.226e-08    -7.798    -7.911    -0.113     (0)  
Cl            1.005e-01
   Cl-             1.005e-01   7.541e-02    -0.998    -1.123    -0.125     18.35
H(0)          1.377e-25
   H2              6.886e-26   7.079e-26   -25.162   -25.150     0.012     28.61
Na            6.050e-02
   Na+             6.050e-02   4.669e-02    -1.218    -1.331    -0.113     -0.96
   NaOH            4.537e-19   4.665e-19   -18.343   -18.331     0.012     (0)  
O(0)          0.000e+00
   O2              0.000e+00   0.000e+00   -42.095   -42.083     0.012     30.40

------------------------------Saturation indices-------------------------------

	Phase               SI   log IAP   log K(298 K,   1 atm)

	H2(g)           -22.05    -25.15   -3.10  H2
	H2O(g)           -1.50     -0.00    1.50  H2O
	Halite           -4.04     -2.45    1.58  NaCl
	O2(g)           -39.19    -42.08   -2.89  O2


------------------
End of simulation.
------------------

------------------------------------
Reading input data for simulation 8.
------------------------------------

-------------------------------------------
Beginning of initial solution calculations.
-------------------------------------------

Initial solution 7.	

-----------------------------Solution composition------------------------------

	Elements           Molality       Moles

	Ca                2.200e-02   2.200e-02
	Cl                6.600e-02   6.600e-02  Charge balance
	Na                2.200e-02   2.200e-02

----------------------------Description of solution----------------------------

                                       pH  =   7.000    
                                       pe  =   4.000    
       Specific Conductance (uS/cm, 25 oC) = 7054
                          Density (g/cm3)  =   0.99997
                        Activity of water  =   0.998
                           Ionic strength  =   8.800e-02
                       Mass of water (kg)  =   1.000e+00
                 Total alkalinity (eq/kg)  =   2.804e-08
                    Total carbon (mol/kg)  =   0.000e+00
                       Total CO2 (mol/kg)  =   0.000e+00
                      Temperature (deg C)  =  25.00
                  Electrical balance (eq)  =  -8.094e-15
 Percent error, 100*(Cat-|An|)/(Cat+|An|)  =  -0.00
                               Iterations  =   9
                                  Total H  = 1.110124e+02
                                  Total O  = 5.550622e+01

----------------------------Distribution of species----------------------------

                                               Log       Log       Log    mole V
   Species          Molality    Activity  Molality  Activity     Gamma   cm3/mol

   OH-             1.297e-07   1.000e-07    -6.887    -7.000    -0.113     -3.69
   H+              1.204e-07   1.000e-07    -6.919    -7.000    -0.081      0.00
   H2O             5.551e+01   9.981e-01     1.744    -0.001     0.000     18.07
Ca            2.200e-02
   Ca+2            2.200e-02   8.913e-03    -1.658    -2.050    -0.392    -17.57
   CaOH+           1.873e-08   1.476e-08    -7.728    -7.831    -0.103     (0)  
Cl            6.600e-02
   Cl-             6.600e-02   5.106e-02    -1.180    -1.292    -0.111     18.30
H(0)          1.387e-25
   H2              6.937e-26   7.079e-26   -25.159   -25.150     0.009     28.61
Na            2.200e-02
   Na+             2.200e-02   1.738e-02    -1.658    -1.760    -0.102     -0.99
   NaOH            1.704e-19   1.739e-19   -18.768   -18.760     0.009     (0)  
O(0)          0.000e+00
   O2              0.000e+00   0.000e+00   -42.090   -42.082     0.009     30.40

------------------------------Saturation indices-------------------------------

	Phase               SI   log IAP   log K(298 K,   1 atm)

	H2(g)           -22.05    -25.15   -3.10  H2
	H2O(g)           -1.50     -0.00    1.50  H2O
	Halite           -4.63     -3.05    1.58  NaCl
	O2(g)           -39.19    -42.08   -2.89  O2


------------------
End of simulation.
------------------

------------------------------------
Reading input data for simulation 9.
------------------------------------

-------------------------------------------
Beginning of initial solution calculations.
-------------------------------------------

Initial solution 8.	

-----------------------------Solution composition------------------------------

	Elements           Molality       Moles

	Ca                2.520e-02   2.520e-02
	Cl                7.570e-02   7.570e-02  Charge balance
	Na                2.530e-02   2.530e-02

----------------------------Description of solution----------------------------

                                       pH  =   7.000    
                                       pe  =   4.000    
       Specific Conductance (uS/cm, 25 oC) = 8012
                          Density (g/cm3)  =   1.00039
                        Activity of water  =   0.998
                           Ionic strength  =   1.009e-01
                       Mass of water (kg)  =   1.000e+00
                 Total alkalinity (eq/kg)  =   3.105e-08
                    Total carbon (mol/kg)  =   0.000e+00
                       Total CO2 (mol/kg)  =   0.000e+00
                      Temperature (deg C)  =  25.00
                  Electrical balance (eq)  =  -3.791e-13
 Percent error, 100*(Cat-|An|)/(Cat+|An|)  =  -0.00
                               Iterations  =   9
                                  Total H  = 1.110124e+02
                                  Total O  = 5.550622e+01

----------------------------Distribution of species----------------------------

                                               Log       Log       Log    mole V
   Species          Molality    Activity  Molality  Activity     Gamma   cm3/mol

   OH-             1.314e-07   1.000e-07    -6.881    -7.000    -0.119     -3.65
   H+              1.212e-07   1.000e-07    -6.916    -7.000    -0.084      0.00
   H2O             5.551e+01   9.979e-01     1.744    -0.001     0.000     18.07
Ca            2.520e-02
   Ca+2            2.520e-02   9.822e-03    -1.599    -2.008    -0.409    -17.53
   CaOH+           2.083e-08   1.627e-08    -7.681    -7.789    -0.108     (0)  
Cl            7.570e-02
   Cl-             7.570e-02   5.780e-02    -1.121    -1.238    -0.117     18.32
H(0)          1.383e-25
   H2              6.917e-26   7.079e-26   -25.160   -25.150     0.010     28.61
Na            2.530e-02
   Na+             2.530e-02   1.979e-02    -1.597    -1.704    -0.107     -0.98
   NaOH            1.933e-19   1.979e-19   -18.714   -18.704     0.010     (0)  
O(0)          0.000e+00
   O2              0.000e+00   0.000e+00   -42.092   -42.082     0.010     30.40

------------------------------Saturation indices-------------------------------

	Phase               SI   log IAP   log K(298 K,   1 atm)

	H2(g)           -22.05    -25.15   -3.10  H2
	H2O(g)           -1.50     -0.00    1.50  H2O
	Halite           -4.52     -2.94    1.58  NaCl
	O2(g)           -39.19    -42.08   -2.89  O2


------------------
End of simulation.
------------------

-------------------------------------
Reading input data for simulation 10.
-------------------------------------

-------------------------------------------
Beginning of initial solution calculations.
-------------------------------------------

Initial solution 9.	

-----------------------------Solution composition------------------------------

	Elements           Molality       Moles

	Ca                2.710e-02   2.710e-02
	Cl                6.330e-02   6.330e-02  Charge balance
	Na                9.100e-03   9.100e-03

----------------------------Description of solution----------------------------

                                       pH  =   7.000    
                                       pe  =   4.000    
       Specific Conductance (uS/cm, 25 oC) = 6718
                          Density (g/cm3)  =   0.99991
                        Activity of water  =   0.998
                           Ionic strength  =   9.040e-02
                       Mass of water (kg)  =   1.000e+00
                 Total alkalinity (eq/kg)  =   3.246e-08
                    Total carbon (mol/kg)  =   0.000e+00
                       Total CO2 (mol/kg)  =   0.000e+00
                      Temperature (deg C)  =  25.00
                  Electrical balance (eq)  =  -4.006e-17
 Percent error, 100*(Cat-|An|)/(Cat+|An|)  =  -0.00
                               Iterations  =   9
                                  Total H  = 1.110124e+02
                                  Total O  = 5.550622e+01

----------------------------Distribution of species----------------------------

                                               Log       Log       Log    mole V
   Species          Molality    Activity  Molality  Activity     Gamma   cm3/mol

   OH-             1.301e-07   1.001e-07    -6.886    -7.000    -0.114     -3.69
   H+              1.206e-07   1.000e-07    -6.919    -7.000    -0.081      0.00
   H2O             5.551e+01   9.983e-01     1.744    -0.001     0.000     18.07
Ca            2.710e-02
   Ca+2            2.710e-02   1.090e-02    -1.567    -1.963    -0.396    -17.56
   CaOH+           2.294e-08   1.805e-08    -7.639    -7.743    -0.104     (0)  
Cl            6.330e-02
   Cl-             6.330e-02   4.884e-02    -1.199    -1.311    -0.113     18.31
H(0)          1.387e-25
   H2              6.934e-26   7.079e-26   -25.159   -25.150     0.009     28.61
Na            9.100e-03
   Na+             9.100e-03   7.176e-03    -2.041    -2.144    -0.103     -0.99
   NaOH            7.032e-20   7.180e-20   -19.153   -19.144     0.009     (0)  
O(0)          0.000e+00
   O2              0.000e+00   0.000e+00   -42.091   -42.081     0.009     30.40

------------------------------Saturation indices-------------------------------

	Phase               SI   log IAP   log K(298 K,   1 atm)

	H2(g)           -22.05    -25.15   -3.10  H2
	H2O(g)           -1.50     -0.00    1.50  H2O
	Halite           -5.04     -3.46    1.58  NaCl
	O2(g)           -39.19    -42.08   -2.89  O2


------------------
End of simulation.
------------------

-------------------------------------
Reading input data for simulation 11.
-------------------------------------

-------------------------------------------
Beginning of initial solution calculations.
-------------------------------------------

Initial solution 10.	

-----------------------------Solution composition------------------------------

	Elements           Molality       Moles

	Ca                3.080e-02   3.080e-02
	Cl                9.940e-02   9.940e-02  Charge balance
	Na                3.780e-02   3.780e-02

----------------------------Description of solution----------------------------

                                       pH  =   7.000    
                                       pe  =   4.000    
       Specific Conductance (uS/cm, 25 oC) = 10345
                          Density (g/cm3)  =   1.00141
                        Activity of water  =   0.997
                           Ionic strength  =   1.302e-01
                       Mass of water (kg)  =   1.000e+00
                 Total alkalinity (eq/kg)  =   3.617e-08
                    Total carbon (mol/kg)  =   0.000e+00
                       Total CO2 (mol/kg)  =   0.000e+00
                      Temperature (deg C)  =  25.00
                  Electrical balance (eq)  =  -2.764e-15
 Percent error, 100*(Cat-|An|)/(Cat+|An|)  =  -0.00
                               Iterations  =   9
                                  Total H  = 1.110124e+02
                                  Total O  = 5.550622e+01

----------------------------Distribution of species----------------------------

                                               Log       Log       Log    mole V
   Species          Molality    Activity  Molality  Activity     Gamma   cm3/mol

   OH-             1.348e-07   9.993e-08    -6.870    -7.000    -0.130     -3.57
   H+              1.228e-07   1.000e-07    -6.911    -7.000    -0.089      0.00
   H2O             5.551e+01   9.971e-01     1.744    -0.001     0.000     18.07
Ca            3.080e-02
   Ca+2            3.080e-02   1.116e-02    -1.511    -1.952    -0.441    -17.45
   CaOH+           2.409e-08   1.847e-08    -7.618    -7.733    -0.115     (0)  
Cl            9.940e-02
   Cl-             9.940e-02   7.401e-02    -1.003    -1.131    -0.128     18.36
H(0)          1.374e-25
   H2              6.870e-26   7.079e-26   -25.163   -25.150     0.013     28.61
Na            3.780e-02
   Na+             3.780e-02   2.900e-02    -1.423    -1.538    -0.115     -0.95
   NaOH            2.813e-19   2.898e-19   -18.551   -18.538     0.013     (0)  
O(0)          0.000e+00
   O2              0.000e+00   0.000e+00   -42.096   -42.082     0.013     30.40

------------------------------Saturation indices-------------------------------

	Phase               SI   log IAP   log K(298 K,   1 atm)

	H2(g)           -22.05    -25.15   -3.10  H2
	H2O(g)           -1.50     -0.00    1.50  H2O
	Halite           -4.25     -2.67    1.58  NaCl
	O2(g)           -39.19    -42.08   -2.89  O2


------------------
End of simulation.
------------------

-------------------------------------
Reading input data for simulation 12.
-------------------------------------

-------------------------------------------
Beginning of initial solution calculations.
-------------------------------------------

Initial solution 11.	

-----------------------------Solution composition------------------------------

	Elements           Molality       Moles

	Ca                3.580e-02   3.580e-02
	Cl                1.724e-01   1.724e-01  Charge balance
	Na                1.008e-01   1.008e-01

----------------------------Description of solution----------------------------

                                       pH  =   7.000    
                                       pe  =   4.000    
       Specific Conductance (uS/cm, 25 oC) = 17521
                          Density (g/cm3)  =   1.00441
                        Activity of water  =   0.995
                           Ionic strength  =   2.082e-01
                       Mass of water (kg)  =   1.000e+00
                 Total alkalinity (eq/kg)  =   4.128e-08
                    Total carbon (mol/kg)  =   0.000e+00
                       Total CO2 (mol/kg)  =   0.000e+00
                      Temperature (deg C)  =  25.00
                  Electrical balance (eq)  =  -3.441e-11
 Percent error, 100*(Cat-|An|)/(Cat+|An|)  =  -0.00
                               Iterations  =   8
                                  Total H  = 1.110124e+02
                                  Total O  = 5.550622e+01

----------------------------Distribution of species----------------------------

                                               Log       Log       Log    mole V
   Species          Molality    Activity  Molality  Activity     Gamma   cm3/mol

   OH-             1.417e-07   9.969e-08    -6.849    -7.001    -0.153     -3.35
   H+              1.256e-07   1.000e-07    -6.901    -7.000    -0.099      0.00
   H2O             5.551e+01   9.947e-01     1.744    -0.002     0.000     18.07
Ca            3.580e-02
   Ca+2            3.580e-02   1.138e-02    -1.446    -1.944    -0.498    -17.28
   CaOH+           2.522e-08   1.879e-08    -7.598    -7.726    -0.128     (0)  
Cl            1.724e-01
   Cl-             1.724e-01   1.222e-01    -0.763    -0.913    -0.150     18.45
H(0)          1.350e-25
   H2              6.748e-26   7.079e-26   -25.171   -25.150     0.021     28.61
Na            1.008e-01
   Na+             1.008e-01   7.475e-02    -0.997    -1.126    -0.130     -0.88
   NaOH            7.103e-19   7.452e-19   -18.149   -18.128     0.021     (0)  
O(0)          0.000e+00
   O2              0.000e+00   0.000e+00   -42.105   -42.085     0.021     30.40

------------------------------Saturation indices-------------------------------

	Phase               SI   log IAP   log K(298 K,   1 atm)

	H2(g)           -22.05    -25.15   -3.10  H2
	H2O(g)           -1.51     -0.00    1.50  H2O
	Halite           -3.62     -2.04    1.58  NaCl
	O2(g)           -39.19    -42.08   -2.89  O2


------------------
End of simulation.
------------------

-------------------------------------
Reading input data for simulation 13.
-------------------------------------

-------------------------------------------
Beginning of initial solution calculations.
-------------------------------------------

Initial solution 12.	

-----------------------------Solution composition------------------------------

	Elements           Molality       Moles

	Ca                3.600e-02   3.600e-02
	Cl                1.734e-01   1.734e-01  Charge balance
	Na                1.014e-01   1.014e-01

----------------------------Description of solution----------------------------

                                       pH  =   7.000    
                                       pe  =   4.000    
       Specific Conductance (uS/cm, 25 oC) = 17616
                          Density (g/cm3)  =   1.00445
                        Activity of water  =   0.995
                           Ionic strength  =   2.094e-01
                       Mass of water (kg)  =   1.000e+00
                 Total alkalinity (eq/kg)  =   4.144e-08
                    Total carbon (mol/kg)  =   0.000e+00
                       Total CO2 (mol/kg)  =   0.000e+00
                      Temperature (deg C)  =  25.00
                  Electrical balance (eq)  =  -3.167e-11
 Percent error, 100*(Cat-|An|)/(Cat+|An|)  =  -0.00
                               Iterations  =   8
                                  Total H  = 1.110124e+02
                                  Total O  = 5.550622e+01

----------------------------Distribution of species----------------------------

                                               Log       Log       Log    mole V
   Species          Molality    Activity  Molality  Activity     Gamma   cm3/mol

   OH-             1.418e-07   9.969e-08    -6.848    -7.001    -0.153     -3.35
   H+              1.257e-07   1.000e-07    -6.901    -7.000    -0.099      0.00
   H2O             5.551e+01   9.947e-01     1.744    -0.002     0.000     18.07
Ca            3.600e-02
   Ca+2            3.600e-02   1.143e-02    -1.444    -1.942    -0.498    -17.28
   CaOH+           2.533e-08   1.886e-08    -7.596    -7.724    -0.128     (0)  
Cl            1.734e-01
   Cl-             1.734e-01   1.228e-01    -0.761    -0.911    -0.150     18.45
H(0)          1.349e-25
   H2              6.746e-26   7.079e-26   -25.171   -25.150     0.021     28.61
Na            1.014e-01
   Na+             1.014e-01   7.516e-02    -0.994    -1.124    -0.130     -0.88
   NaOH            7.140e-19   7.493e-19   -18.146   -18.125     0.021     (0)  
O(0)          0.000e+00
   O2              0.000e+00   0.000e+00   -42.106   -42.085     0.021     30.40

------------------------------Saturation indices-------------------------------

	Phase               SI   log IAP   log K(298 K,   1 atm)

	H2(g)           -22.05    -25.15   -3.10  H2
	H2O(g)           -1.51     -0.00    1.50  H2O
	Halite           -3.62     -2.03    1.58  NaCl
	O2(g)           -39.19    -42.08   -2.89  O2


------------------
End of simulation.
------------------

-------------------------------------
Reading input data for simulation 14.
-------------------------------------

-------------------------------------------
Beginning of initial solution calculations.
-------------------------------------------

Initial solution 13.	

-----------------------------Solution composition------------------------------

	Elements           Molality       Moles

	Ca                3.630e-02   3.630e-02
	Cl                8.930e-02   8.930e-02  Charge balance
	Na                1.670e-02   1.670e-02

----------------------------Description of solution----------------------------

                                       pH  =   7.000    
                                       pe  =   4.000    
       Specific Conductance (uS/cm, 25 oC) = 9253
                          Density (g/cm3)  =   1.00105
                        Activity of water  =   0.998
                           Ionic strength  =   1.256e-01
                       Mass of water (kg)  =   1.000e+00
                 Total alkalinity (eq/kg)  =   4.047e-08
                    Total carbon (mol/kg)  =   0.000e+00
                       Total CO2 (mol/kg)  =   0.000e+00
                      Temperature (deg C)  =  25.00
                  Electrical balance (eq)  =  -2.457e-14
 Percent error, 100*(Cat-|An|)/(Cat+|An|)  =  -0.00
                               Iterations  =   9
                                  Total H  = 1.110124e+02
                                  Total O  = 5.550622e+01

----------------------------Distribution of species----------------------------

                                               Log       Log       Log    mole V
   Species          Molality    Activity  Molality  Activity     Gamma   cm3/mol

   OH-             1.344e-07   9.998e-08    -6.872    -7.000    -0.128     -3.58
   H+              1.225e-07   1.000e-07    -6.912    -7.000    -0.088      0.00
   H2O             5.551e+01   9.976e-01     1.744    -0.001     0.000     18.07
Ca            3.630e-02
   Ca+2            3.630e-02   1.329e-02    -1.440    -1.876    -0.436    -17.46
   CaOH+           2.863e-08   2.201e-08    -7.543    -7.657    -0.114     (0)  
Cl            8.930e-02
   Cl-             8.930e-02   6.673e-02    -1.049    -1.176    -0.127     18.35
H(0)          1.376e-25
   H2              6.878e-26   7.079e-26   -25.163   -25.150     0.013     28.61
Na            1.670e-02
   Na+             1.670e-02   1.285e-02    -1.777    -1.891    -0.114     -0.95
   NaOH            1.248e-19   1.284e-19   -18.904   -18.891     0.013     (0)  
O(0)          0.000e+00
   O2              0.000e+00   0.000e+00   -42.095   -42.082     0.013     30.40

------------------------------Saturation indices-------------------------------

	Phase               SI   log IAP   log K(298 K,   1 atm)

	H2(g)           -22.05    -25.15   -3.10  H2
	H2O(g)           -1.50     -0.00    1.50  H2O
	Halite           -4.65     -3.07    1.58  NaCl
	O2(g)           -39.19    -42.08   -2.89  O2


------------------
End of simulation.
------------------

-------------------------------------
Reading input data for simulation 15.
-------------------------------------

-------------------------------------------
Beginning of initial solution calculations.
-------------------------------------------

Initial solution 14.	

-----------------------------Solution composition------------------------------

	Elements           Molality       Moles

	Ca                3.780e-02   3.780e-02
	Cl                3.553e-01   3.553e-01  Charge balance
	Na                2.797e-01   2.797e-01

----------------------------Description of solution----------------------------

                                       pH  =   7.000    
                                       pe  =   4.000    
       Specific Conductance (uS/cm, 25 oC) = 34803
                          Density (g/cm3)  =   1.01172
                        Activity of water  =   0.989
                           Ionic strength  =   3.931e-01
                       Mass of water (kg)  =   1.000e+00
                 Total alkalinity (eq/kg)  =   4.564e-08
                    Total carbon (mol/kg)  =   0.000e+00
                       Total CO2 (mol/kg)  =   0.000e+00
                      Temperature (deg C)  =  25.00
                  Electrical balance (eq)  =   5.470e-17
 Percent error, 100*(Cat-|An|)/(Cat+|An|)  =   0.00
                               Iterations  =   8
                                  Total H  = 1.110124e+02
                                  Total O  = 5.550622e+01

----------------------------Distribution of species----------------------------

                                               Log       Log       Log    mole V
   Species          Molality    Activity  Molality  Activity     Gamma   cm3/mol

   OH-             1.520e-07   9.907e-08    -6.818    -7.004    -0.186     -2.90
   H+              1.294e-07   1.000e-07    -6.888    -7.000    -0.112      0.00
   H2O             5.551e+01   9.886e-01     1.744    -0.005     0.000     18.07
Ca            3.780e-02
   Ca+2            3.780e-02   1.028e-02    -1.423    -1.988    -0.565    -17.01
   CaOH+           2.310e-08   1.687e-08    -7.636    -7.773    -0.136     (0)  
Cl            3.553e-01
   Cl-             3.553e-01   2.348e-01    -0.449    -0.629    -0.180     18.59
H(0)          1.293e-25
   H2              6.467e-26   7.079e-26   -25.189   -25.150     0.039     28.61
Na            2.797e-01
   Na+             2.797e-01   1.999e-01    -0.553    -0.699    -0.146     -0.75
   NaOH            1.809e-18   1.981e-18   -17.743   -17.703     0.039     (0)  
O(0)          0.000e+00
   O2              0.000e+00   0.000e+00   -42.129   -42.090     0.039     30.40

------------------------------Saturation indices-------------------------------

	Phase               SI   log IAP   log K(298 K,   1 atm)

	H2(g)           -22.05    -25.15   -3.10  H2
	H2O(g)           -1.51     -0.00    1.50  H2O
	Halite           -2.91     -1.33    1.58  NaCl
	O2(g)           -39.20    -42.09   -2.89  O2


------------------
End of simulation.
------------------

-------------------------------------
Reading input data for simulation 16.
-------------------------------------

-------------------------------------------
Beginning of initial solution calculations.
-------------------------------------------

Initial solution 15.	

-----------------------------Solution composition------------------------------

	Elements           Molality       Moles

	Ca                4.080e-02   4.080e-02
	Cl                9.520e-02   9.520e-02  Charge balance
	Na                1.360e-02   1.360e-02

----------------------------Description of solution----------------------------

                                       pH  =   7.000    
                                       pe  =   4.000    
       Specific Conductance (uS/cm, 25 oC) = 9786
                          Density (g/cm3)  =   1.00133
                        Activity of water  =   0.997
                           Ionic strength  =   1.360e-01
                       Mass of water (kg)  =   1.000e+00
                 Total alkalinity (eq/kg)  =   4.410e-08
                    Total carbon (mol/kg)  =   0.000e+00
                       Total CO2 (mol/kg)  =   0.000e+00
                      Temperature (deg C)  =  25.00
                  Electrical balance (eq)  =  -7.724e-15
 Percent error, 100*(Cat-|An|)/(Cat+|An|)  =  -0.00
                               Iterations  =   9
                                  Total H  = 1.110124e+02
                                  Total O  = 5.550622e+01

----------------------------Distribution of species----------------------------

                                               Log       Log       Log    mole V
   Species          Molality    Activity  Molality  Activity     Gamma   cm3/mol

   OH-             1.355e-07   9.997e-08    -6.868    -7.000    -0.132     -3.55
   H+              1.230e-07   1.000e-07    -6.910    -7.000    -0.090      0.00
   H2O             5.551e+01   9.975e-01     1.744    -0.001     0.000     18.07
Ca            4.080e-02
   Ca+2            4.080e-02   1.461e-02    -1.389    -1.835    -0.446    -17.44
   CaOH+           3.163e-08   2.418e-08    -7.500    -7.617    -0.117     (0)  
Cl            9.520e-02
   Cl-             9.520e-02   7.057e-02    -1.021    -1.151    -0.130     18.37
H(0)          1.372e-25
   H2              6.861e-26   7.079e-26   -25.164   -25.150     0.014     28.61
Na            1.360e-02
   Na+             1.360e-02   1.040e-02    -1.866    -1.983    -0.116     -0.94
   NaOH            1.008e-19   1.040e-19   -18.997   -18.983     0.014     (0)  
O(0)          0.000e+00
   O2              0.000e+00   0.000e+00   -42.096   -42.082     0.014     30.40

------------------------------Saturation indices-------------------------------

	Phase               SI   log IAP   log K(298 K,   1 atm)

	H2(g)           -22.05    -25.15   -3.10  H2
	H2O(g)           -1.50     -0.00    1.50  H2O
	Halite           -4.72     -3.13    1.58  NaCl
	O2(g)           -39.19    -42.08   -2.89  O2


------------------
End of simulation.
------------------

-------------------------------------
Reading input data for simulation 17.
-------------------------------------

-------------------------------------------
Beginning of initial solution calculations.
-------------------------------------------

Initial solution 16.	

-----------------------------Solution composition------------------------------

	Elements           Molality       Moles

	Ca                4.680e-02   4.680e-02
	Cl                2.352e-01   2.352e-01  Charge balance
	Na                1.416e-01   1.416e-01

----------------------------Description of solution----------------------------

                                       pH  =   7.000    
                                       pe  =   4.000    
       Specific Conductance (uS/cm, 25 oC) = 23455
                          Density (g/cm3)  =   1.00703
                        Activity of water  =   0.993
                           Ionic strength  =   2.820e-01
                       Mass of water (kg)  =   1.000e+00
                 Total alkalinity (eq/kg)  =   4.990e-08
                    Total carbon (mol/kg)  =   0.000e+00
                       Total CO2 (mol/kg)  =   0.000e+00
                      Temperature (deg C)  =  25.00
                  Electrical balance (eq)  =  -2.256e-13
 Percent error, 100*(Cat-|An|)/(Cat+|An|)  =  -0.00
                               Iterations  =   8
                                  Total H  = 1.110124e+02
                                  Total O  = 5.550622e+01

----------------------------Distribution of species----------------------------

                                               Log       Log       Log    mole V
   Species          Molality    Activity  Molality  Activity     Gamma   cm3/mol

   OH-             1.466e-07   9.950e-08    -6.834    -7.002    -0.168     -3.17
   H+              1.275e-07   1.000e-07    -6.895    -7.000    -0.105      0.00
   H2O             5.551e+01   9.928e-01     1.744    -0.003     0.000     18.07
Ca            4.680e-02
   Ca+2            4.680e-02   1.374e-02    -1.330    -1.862    -0.532    -17.16
   CaOH+           3.081e-08   2.265e-08    -7.511    -7.645    -0.134     (0)  
Cl            2.352e-01
   Cl-             2.352e-01   1.612e-01    -0.629    -0.793    -0.164     18.51
H(0)          1.327e-25
   H2              6.634e-26   7.079e-26   -25.178   -25.150     0.028     28.61
Na            1.416e-01
   Na+             1.416e-01   1.030e-01    -0.849    -0.987    -0.138     -0.82
   NaOH            9.601e-19   1.024e-18   -18.018   -17.989     0.028     (0)  
O(0)          0.000e+00
   O2              0.000e+00   0.000e+00   -42.114   -42.086     0.028     30.40

------------------------------Saturation indices-------------------------------

	Phase               SI   log IAP   log K(298 K,   1 atm)

	H2(g)           -22.05    -25.15   -3.10  H2
	H2O(g)           -1.51     -0.00    1.50  H2O
	Halite           -3.36     -1.78    1.58  NaCl
	O2(g)           -39.19    -42.09   -2.89  O2


------------------
End of simulation.
------------------

-------------------------------------
Reading input data for simulation 18.
-------------------------------------

-------------------------------------------
Beginning of initial solution calculations.
-------------------------------------------

Initial solution 17.	

-----------------------------Solution composition------------------------------

	Elements           Molality       Moles

	Ca                4.870e-02   4.870e-02
	Cl                2.446e-01   2.446e-01  Charge balance
	Na                1.472e-01   1.472e-01

----------------------------Description of solution----------------------------

                                       pH  =   7.000    
                                       pe  =   4.000    
       Specific Conductance (uS/cm, 25 oC) = 24331
                          Density (g/cm3)  =   1.00742
                        Activity of water  =   0.993
                           Ionic strength  =   2.933e-01
                       Mass of water (kg)  =   1.000e+00
                 Total alkalinity (eq/kg)  =   5.129e-08
                    Total carbon (mol/kg)  =   0.000e+00
                       Total CO2 (mol/kg)  =   0.000e+00
                      Temperature (deg C)  =  25.00
                  Electrical balance (eq)  =  -1.092e-13
 Percent error, 100*(Cat-|An|)/(Cat+|An|)  =  -0.00
                               Iterations  =   8
                                  Total H  = 1.110124e+02
                                  Total O  = 5.550622e+01

----------------------------Distribution of species----------------------------

                                               Log       Log       Log    mole V
   Species          Molality    Activity  Molality  Activity     Gamma   cm3/mol

   OH-             1.472e-07   9.947e-08    -6.832    -7.002    -0.170     -3.14
   H+              1.277e-07   1.000e-07    -6.894    -7.000    -0.106      0.00
   H2O             5.551e+01   9.925e-01     1.744    -0.003     0.000     18.07
Ca            4.870e-02
   Ca+2            4.870e-02   1.416e-02    -1.312    -1.849    -0.536    -17.14
   CaOH+           3.179e-08   2.333e-08    -7.498    -7.632    -0.134     (0)  
Cl            2.446e-01
   Cl-             2.446e-01   1.670e-01    -0.612    -0.777    -0.166     18.52
H(0)          1.323e-25
   H2              6.617e-26   7.079e-26   -25.179   -25.150     0.029     28.61
Na            1.472e-01
   Na+             1.472e-01   1.068e-01    -0.832    -0.971    -0.139     -0.81
   NaOH            9.929e-19   1.062e-18   -18.003   -17.974     0.029     (0)  
O(0)          0.000e+00
   O2              0.000e+00   0.000e+00   -42.116   -42.087     0.029     30.40

------------------------------Saturation indices-------------------------------

	Phase               SI   log IAP   log K(298 K,   1 atm)

	H2(g)           -22.05    -25.15   -3.10  H2
	H2O(g)           -1.51     -0.00    1.50  H2O
	Halite           -3.33     -1.75    1.58  NaCl
	O2(g)           -39.19    -42.09   -2.89  O2


------------------
End of simulation.
------------------

-------------------------------------
Reading input data for simulation 19.
-------------------------------------

-------------------------------------------
Beginning of initial solution calculations.
-------------------------------------------

Initial solution 18.	

-----------------------------Solution composition------------------------------

	Elements           Molality       Moles

	Ca                5.640e-02   5.640e-02
	Cl                1.822e-01   1.822e-01  Charge balance
	Na                6.940e-02   6.940e-02

----------------------------Description of solution----------------------------

                                       pH  =   7.000    
                                       pe  =   4.000    
       Specific Conductance (uS/cm, 25 oC) = 18148
                          Density (g/cm3)  =   1.00499
                        Activity of water  =   0.995
                           Ionic strength  =   2.386e-01
                       Mass of water (kg)  =   1.000e+00
                 Total alkalinity (eq/kg)  =   5.607e-08
                    Total carbon (mol/kg)  =   0.000e+00
                       Total CO2 (mol/kg)  =   0.000e+00
                      Temperature (deg C)  =  25.00
                  Electrical balance (eq)  =  -1.798e-11
 Percent error, 100*(Cat-|An|)/(Cat+|An|)  =  -0.00
                               Iterations  =   8
                                  Total H  = 1.110124e+02
                                  Total O  = 5.550622e+01

----------------------------Distribution of species----------------------------

                                               Log       Log       Log    mole V
   Species          Molality    Activity  Molality  Activity     Gamma   cm3/mol

   OH-             1.440e-07   9.970e-08    -6.842    -7.001    -0.160     -3.28
   H+              1.265e-07   1.000e-07    -6.898    -7.000    -0.102      0.00
   H2O             5.551e+01   9.948e-01     1.744    -0.002     0.000     18.07
Ca            5.640e-02
   Ca+2            5.640e-02   1.729e-02    -1.249    -1.762    -0.514    -17.23
   CaOH+           3.858e-08   2.854e-08    -7.414    -7.545    -0.131     (0)  
Cl            1.822e-01
   Cl-             1.822e-01   1.272e-01    -0.739    -0.895    -0.156     18.47
H(0)          1.340e-25
   H2              6.701e-26   7.079e-26   -25.174   -25.150     0.024     28.61
Na            6.940e-02
   Na+             6.940e-02   5.099e-02    -1.159    -1.292    -0.134     -0.85
   NaOH            4.812e-19   5.084e-19   -18.318   -18.294     0.024     (0)  
O(0)          0.000e+00
   O2              0.000e+00   0.000e+00   -42.108   -42.085     0.024     30.40

------------------------------Saturation indices-------------------------------

	Phase               SI   log IAP   log K(298 K,   1 atm)

	H2(g)           -22.05    -25.15   -3.10  H2
	H2O(g)           -1.51     -0.00    1.50  H2O
	Halite           -3.77     -2.19    1.58  NaCl
	O2(g)           -39.19    -42.08   -2.89  O2


------------------
End of simulation.
------------------

-------------------------------------
Reading input data for simulation 20.
-------------------------------------

-------------------------------------------
Beginning of initial solution calculations.
-------------------------------------------

Initial solution 19.	

-----------------------------Solution composition------------------------------

	Elements           Molality       Moles

	Ca                5.680e-02   5.680e-02
	Cl                5.341e-01   5.341e-01  Charge balance
	Na                4.205e-01   4.205e-01

----------------------------Description of solution----------------------------

                                       pH  =   7.000    
                                       pe  =   4.000    
       Specific Conductance (uS/cm, 25 oC) = 48486
                          Density (g/cm3)  =   1.01892
                        Activity of water  =   0.983
                           Ionic strength  =   5.909e-01
                       Mass of water (kg)  =   1.000e+00
                 Total alkalinity (eq/kg)  =   5.909e-08
                    Total carbon (mol/kg)  =   0.000e+00
                       Total CO2 (mol/kg)  =   0.000e+00
                      Temperature (deg C)  =  25.00
                  Electrical balance (eq)  =  -7.830e-12
 Percent error, 100*(Cat-|An|)/(Cat+|An|)  =  -0.00
                               Iterations  =   7
                                  Total H  = 1.110124e+02
                                  Total O  = 5.550622e+01

----------------------------Distribution of species----------------------------

                                               Log       Log       Log    mole V
   Species          Molality    Activity  Molality  Activity     Gamma   cm3/mol

   OH-             1.591e-07   9.850e-08    -6.798    -7.007    -0.208     -2.45
   H+              1.318e-07   1.000e-07    -6.880    -7.000    -0.120      0.00
   H2O             5.551e+01   9.828e-01     1.744    -0.008     0.000     18.07
Ca            5.680e-02
   Ca+2            5.680e-02   1.441e-02    -1.246    -1.841    -0.596    -16.80
   CaOH+           3.180e-08   2.351e-08    -7.498    -7.629    -0.131     (0)  
Cl            5.341e-01
   Cl-             5.341e-01   3.376e-01    -0.272    -0.472    -0.199     18.72
H(0)          1.236e-25
   H2              6.179e-26   7.079e-26   -25.209   -25.150     0.059     28.61
Na            4.205e-01
   Na+             4.205e-01   2.972e-01    -0.376    -0.527    -0.151     -0.63
   NaOH            2.555e-18   2.927e-18   -17.593   -17.534     0.059     (0)  
O(0)          0.000e+00
   O2              0.000e+00   0.000e+00   -42.154   -42.095     0.059     30.40

------------------------------Saturation indices-------------------------------

	Phase               SI   log IAP   log K(298 K,   1 atm)

	H2(g)           -22.05    -25.15   -3.10  H2
	H2O(g)           -1.51     -0.01    1.50  H2O
	Halite           -2.58     -1.00    1.58  NaCl
	O2(g)           -39.20    -42.10   -2.89  O2


------------------
End of simulation.
------------------

-------------------------------------
Reading input data for simulation 21.
-------------------------------------

-------------------------------------------
Beginning of initial solution calculations.
-------------------------------------------

Initial solution 20.	

-----------------------------Solution composition------------------------------

	Elements           Molality       Moles

	Ca                5.780e-02   5.780e-02
	Cl                1.735e-01   1.735e-01  Charge balance
	Na                5.790e-02   5.790e-02

----------------------------Description of solution----------------------------

                                       pH  =   7.000    
                                       pe  =   4.000    
       Specific Conductance (uS/cm, 25 oC) = 17276
                          Density (g/cm3)  =   1.00466
                        Activity of water  =   0.995
                           Ionic strength  =   2.313e-01
                       Mass of water (kg)  =   1.000e+00
                 Total alkalinity (eq/kg)  =   5.702e-08
                    Total carbon (mol/kg)  =   0.000e+00
                       Total CO2 (mol/kg)  =   0.000e+00
                      Temperature (deg C)  =  25.00
                  Electrical balance (eq)  =  -3.774e-11
 Percent error, 100*(Cat-|An|)/(Cat+|An|)  =  -0.00
                               Iterations  =   8
                                  Total H  = 1.110124e+02
                                  Total O  = 5.550622e+01

----------------------------Distribution of species----------------------------

                                               Log       Log       Log    mole V
   Species          Molality    Activity  Molality  Activity     Gamma   cm3/mol

   OH-             1.435e-07   9.973e-08    -6.843    -7.001    -0.158     -3.29
   H+              1.263e-07   1.000e-07    -6.899    -7.000    -0.101      0.00
   H2O             5.551e+01   9.951e-01     1.744    -0.002     0.000     18.07
Ca            5.780e-02
   Ca+2            5.780e-02   1.786e-02    -1.238    -1.748    -0.510    -17.24
   CaOH+           3.981e-08   2.950e-08    -7.400    -7.530    -0.130     (0)  
Cl            1.735e-01
   Cl-             1.735e-01   1.216e-01    -0.761    -0.915    -0.154     18.47
H(0)          1.342e-25
   H2              6.712e-26   7.079e-26   -25.173   -25.150     0.023     28.61
Na            5.790e-02
   Na+             5.790e-02   4.263e-02    -1.237    -1.370    -0.133     -0.86
[...]

                                       pH  =   7.000    
                                       pe  =   4.000    
       Specific Conductance (uS/cm, 25 oC) = 512737
                          Density (g/cm3)  =   1.24329
                        Activity of water  =   0.820
                           Ionic strength  =   9.614e+00
                       Mass of water (kg)  =   1.000e+00
                 Total alkalinity (eq/kg)  =   1.179e-06
                    Total carbon (mol/kg)  =   0.000e+00
                       Total CO2 (mol/kg)  =   0.000e+00
                      Temperature (deg C)  =  25.00
                  Electrical balance (eq)  =  -5.382e-08
 Percent error, 100*(Cat-|An|)/(Cat+|An|)  =  -0.00
                               Iterations  =   8
                                  Total H  = 1.110124e+02
                                  Total O  = 5.550622e+01

----------------------------Distribution of species----------------------------

                                               Log       Log       Log    mole V
   Species          Molality    Activity  Molality  Activity     Gamma   cm3/mol

   OH-             1.825e-07   8.220e-08    -6.739    -7.085    -0.346     14.26
   H+              1.431e-07   1.000e-07    -6.844    -7.000    -0.156      0.00
   H2O             5.551e+01   8.202e-01     1.744    -0.086     0.000     18.07
Ca            2.884e+00
   Ca+2            2.884e+00   1.019e+01     0.460     1.008     0.548    -12.66
   CaOH+           1.139e-06   1.387e-05    -5.943    -4.858     1.085     (0)  
Cl            6.730e+00
   Cl-             6.730e+00   4.225e+00     0.828     0.626    -0.202     20.47
H(0)          1.548e-26
   H2              7.738e-27   7.079e-26   -26.111   -25.150     0.961     28.61
Na            9.616e-01
   Na+             9.616e-01   2.468e+00    -0.017     0.392     0.409      2.89
   NaOH            2.218e-18   2.029e-17   -17.654   -16.693     0.961     (0)  
O(0)          0.000e+00
   O2              0.000e+00   0.000e+00   -43.214   -42.252     0.961     30.40

------------------------------Saturation indices-------------------------------

	Phase               SI   log IAP   log K(298 K,   1 atm)

	H2(g)           -22.05    -25.15   -3.10  H2
	H2O(g)           -1.59     -0.09    1.50  H2O
	Halite           -0.56      1.02    1.58  NaCl
	O2(g)           -39.36    -42.25   -2.89  O2


------------------
End of simulation.
------------------

--------------------------------------
Reading input data for simulation 191.
--------------------------------------

-------------------------------------------
Beginning of initial solution calculations.
-------------------------------------------

Initial solution 190.	

-----------------------------Solution composition------------------------------

	Elements           Molality       Moles

	Ca                3.034e+00   3.034e+00
	Cl                7.080e+00   7.080e+00  Charge balance
	Na                1.012e+00   1.012e+00

----------------------------Description of solution----------------------------

                                       pH  =   7.000    
                                       pe  =   4.000    
       Specific Conductance (uS/cm, 25 oC) = 539936
                          Density (g/cm3)  =   1.25359
                        Activity of water  =   0.811
                           Ionic strength  =   1.011e+01
                       Mass of water (kg)  =   1.000e+00
                 Total alkalinity (eq/kg)  =   1.234e-06
                    Total carbon (mol/kg)  =   0.000e+00
                       Total CO2 (mol/kg)  =   0.000e+00
                      Temperature (deg C)  =  25.00
                  Electrical balance (eq)  =  -8.750e-15
 Percent error, 100*(Cat-|An|)/(Cat+|An|)  =  -0.00
                               Iterations  =   9
                                  Total H  = 1.110124e+02
                                  Total O  = 5.550622e+01

----------------------------Distribution of species----------------------------

                                               Log       Log       Log    mole V
   Species          Molality    Activity  Molality  Activity     Gamma   cm3/mol

   OH-             1.812e-07   8.126e-08    -6.742    -7.090    -0.348     15.14
   H+              1.432e-07   1.000e-07    -6.844    -7.000    -0.156      0.00
   H2O             5.551e+01   8.109e-01     1.744    -0.091     0.000     18.07
Ca            3.034e+00
   Ca+2            3.034e+00   1.284e+01     0.482     1.108     0.626    -12.48
   CaOH+           1.196e-06   1.727e-05    -5.922    -4.763     1.160     (0)  
Cl            7.080e+00
   Cl-             7.080e+00   4.502e+00     0.850     0.653    -0.197     20.52
H(0)          1.379e-26
   H2              6.895e-27   7.079e-26   -26.161   -25.150     1.011     28.61
Na            1.012e+00
   Na+             1.012e+00   2.821e+00     0.005     0.450     0.445      3.07
   NaOH            2.233e-18   2.293e-17   -17.651   -16.640     1.011     (0)  
O(0)          0.000e+00
   O2              0.000e+00   0.000e+00   -43.274   -42.262     1.011     30.40

------------------------------Saturation indices-------------------------------

	Phase               SI   log IAP   log K(298 K,   1 atm)

	H2(g)           -22.05    -25.15   -3.10  H2
	H2O(g)           -1.59     -0.09    1.50  H2O
	Halite           -0.48      1.10    1.58  NaCl
	O2(g)           -39.37    -42.26   -2.89  O2


------------------
End of simulation.
------------------

--------------------------------------
Reading input data for simulation 192.
--------------------------------------

-------------------------------------------
Beginning of initial solution calculations.
-------------------------------------------

Initial solution 191.	

-----------------------------Solution composition------------------------------

	Elements           Molality       Moles

	Ca                3.087e+00   3.087e+00
	Cl                7.202e+00   7.202e+00  Charge balance
	Na                1.029e+00   1.029e+00

----------------------------Description of solution----------------------------

                                       pH  =   7.000    
                                       pe  =   4.000    
       Specific Conductance (uS/cm, 25 oC) = 549549
                          Density (g/cm3)  =   1.25713
                        Activity of water  =   0.808
                           Ionic strength  =   1.029e+01
                       Mass of water (kg)  =   1.000e+00
                 Total alkalinity (eq/kg)  =   1.254e-06
                    Total carbon (mol/kg)  =   0.000e+00
                       Total CO2 (mol/kg)  =   0.000e+00
                      Temperature (deg C)  =  25.00
                  Electrical balance (eq)  =  -2.100e-14
 Percent error, 100*(Cat-|An|)/(Cat+|An|)  =  -0.00
                               Iterations  =   9
                                  Total H  = 1.110124e+02
                                  Total O  = 5.550622e+01

----------------------------Distribution of species----------------------------

                                               Log       Log       Log    mole V
   Species          Molality    Activity  Molality  Activity     Gamma   cm3/mol

   OH-             1.808e-07   8.094e-08    -6.743    -7.092    -0.349     15.45
   H+              1.432e-07   1.000e-07    -6.844    -7.000    -0.156      0.00
   H2O             5.551e+01   8.076e-01     1.744    -0.093     0.000     18.07
Ca            3.087e+00
   Ca+2            3.087e+00   1.391e+01     0.489     1.143     0.654    -12.41
   CaOH+           1.216e-06   1.864e-05    -5.915    -4.730     1.186     (0)  
Cl            7.202e+00
   Cl-             7.202e+00   4.601e+00     0.857     0.663    -0.195     20.54
H(0)          1.325e-26
   H2              6.623e-27   7.079e-26   -26.179   -25.150     1.029     28.61
Na            1.029e+00
   Na+             1.029e+00   2.954e+00     0.012     0.470     0.458      3.14
   NaOH            2.237e-18   2.391e-17   -17.650   -16.621     1.029     (0)  
O(0)          0.000e+00
   O2              0.000e+00   0.000e+00   -43.295   -42.266     1.029     30.40

------------------------------Saturation indices-------------------------------

	Phase               SI   log IAP   log K(298 K,   1 atm)

	H2(g)           -22.05    -25.15   -3.10  H2
	H2O(g)           -1.60     -0.09    1.50  H2O
	Halite           -0.45      1.13    1.58  NaCl
	O2(g)           -39.37    -42.27   -2.89  O2


------------------
End of simulation.
------------------

--------------------------------------
Reading input data for simulation 193.
--------------------------------------

-------------------------------------------
Beginning of initial solution calculations.
-------------------------------------------

Initial solution 192.	

-----------------------------Solution composition------------------------------

	Elements           Molality       Moles

	Ca                3.241e+00   3.241e+00
	Cl                7.563e+00   7.563e+00  Charge balance
	Na                1.081e+00   1.081e+00

----------------------------Description of solution----------------------------

                                       pH  =   7.000    
                                       pe  =   4.000    
       Specific Conductance (uS/cm, 25 oC) = 578297
                          Density (g/cm3)  =   1.26740
                        Activity of water  =   0.798
                           Ionic strength  =   1.080e+01
                       Mass of water (kg)  =   1.000e+00
                 Total alkalinity (eq/kg)  =   1.310e-06
                    Total carbon (mol/kg)  =   0.000e+00
                       Total CO2 (mol/kg)  =   0.000e+00
                      Temperature (deg C)  =  25.00
                  Electrical balance (eq)  =  -5.731e-13
 Percent error, 100*(Cat-|An|)/(Cat+|An|)  =  -0.00
                               Iterations  =   9
                                  Total H  = 1.110124e+02
                                  Total O  = 5.550622e+01

----------------------------Distribution of species----------------------------

                                               Log       Log       Log    mole V
   Species          Molality    Activity  Molality  Activity     Gamma   cm3/mol

   OH-             1.794e-07   7.997e-08    -6.746    -7.097    -0.351     16.35
   H+              1.434e-07   1.000e-07    -6.844    -7.000    -0.156      0.00
   H2O             5.551e+01   7.980e-01     1.744    -0.098     0.000     18.07
Ca            3.241e+00
   Ca+2            3.241e+00   1.759e+01     0.511     1.245     0.735    -12.22
   CaOH+           1.274e-06   2.330e-05    -5.895    -4.633     1.262     (0)  
Cl            7.563e+00
   Cl-             7.563e+00   4.897e+00     0.879     0.690    -0.189     20.59
H(0)          1.177e-26
   H2              5.884e-27   7.079e-26   -26.230   -25.150     1.080     28.61
Na            1.081e+00
   Na+             1.081e+00   3.379e+00     0.034     0.529     0.495      3.32
   NaOH            2.246e-18   2.702e-17   -17.649   -16.568     1.080     (0)  
O(0)          0.000e+00
   O2              0.000e+00   0.000e+00   -43.356   -42.276     1.080     30.40

------------------------------Saturation indices-------------------------------

	Phase               SI   log IAP   log K(298 K,   1 atm)

	H2(g)           -22.05    -25.15   -3.10  H2
	H2O(g)           -1.60     -0.10    1.50  H2O
	Halite           -0.36      1.22    1.58  NaCl
	O2(g)           -39.38    -42.28   -2.89  O2


------------------
End of simulation.
------------------

--------------------------------------
Reading input data for simulation 194.
--------------------------------------

-------------------------------------------
Beginning of initial solution calculations.
-------------------------------------------

Initial solution 193.	

-----------------------------Solution composition------------------------------

	Elements           Molality       Moles

	Ca                3.353e+00   3.353e+00
	Cl                7.824e+00   7.824e+00  Charge balance
	Na                1.118e+00   1.118e+00

----------------------------Description of solution----------------------------

                                       pH  =   7.000    
                                       pe  =   4.000    
       Specific Conductance (uS/cm, 25 oC) = 599624
                          Density (g/cm3)  =   1.27472
                        Activity of water  =   0.791
                           Ionic strength  =   1.118e+01
                       Mass of water (kg)  =   1.000e+00
                 Total alkalinity (eq/kg)  =   1.352e-06
                    Total carbon (mol/kg)  =   0.000e+00
                       Total CO2 (mol/kg)  =   0.000e+00
                      Temperature (deg C)  =  25.00
                  Electrical balance (eq)  =  -4.957e-12
 Percent error, 100*(Cat-|An|)/(Cat+|An|)  =  -0.00
                               Iterations  =   9
                                  Total H  = 1.110124e+02
                                  Total O  = 5.550622e+01

----------------------------Distribution of species----------------------------

                                               Log       Log       Log    mole V
   Species          Molality    Activity  Molality  Activity     Gamma   cm3/mol

   OH-             1.783e-07   7.927e-08    -6.749    -7.101    -0.352     17.01
   H+              1.434e-07   1.000e-07    -6.843    -7.000    -0.157      0.00
   H2O             5.551e+01   7.910e-01     1.744    -0.102     0.000     18.07
Ca            3.353e+00
   Ca+2            3.353e+00   2.085e+01     0.525     1.319     0.794    -12.08
   CaOH+           1.317e-06   2.736e-05    -5.880    -4.563     1.318     (0)  
Cl            7.824e+00
   Cl-             7.824e+00   5.118e+00     0.893     0.709    -0.184     20.63
H(0)          1.080e-26
   H2              5.398e-27   7.079e-26   -26.268   -25.150     1.118     28.61
Na            1.118e+00
   Na+             1.118e+00   3.720e+00     0.048     0.571     0.522      3.46
   NaOH            2.249e-18   2.949e-17   -17.648   -16.530     1.118     (0)  
O(0)          0.000e+00
   O2              0.000e+00   0.000e+00   -43.401   -42.284     1.118     30.40

------------------------------Saturation indices-------------------------------

	Phase               SI   log IAP   log K(298 K,   1 atm)

	H2(g)           -22.05    -25.15   -3.10  H2
	H2O(g)           -1.60     -0.10    1.50  H2O
	Halite           -0.30      1.28    1.58  NaCl
	O2(g)           -39.39    -42.28   -2.89  O2


------------------
End of simulation.
------------------

--------------------------------------
Reading input data for simulation 195.
--------------------------------------

------------------
End of simulation.
------------------

--------------------------------------
Reading input data for simulation 196.
--------------------------------------

-------------------------------------------
Beginning of initial solution calculations.
-------------------------------------------

Initial solution 1.	

-----------------------------Solution composition------------------------------

	Elements           Molality       Moles

	Pure water     

----------------------------Description of solution----------------------------

                                       pH  =   7.000    
                                       pe  =   4.000    
       Specific Conductance (uS/cm, 25 oC) = 0
                          Density (g/cm3)  =   0.99705
                        Activity of water  =   1.000
                           Ionic strength  =   1.002e-07
                       Mass of water (kg)  =   1.000e+00
                 Total alkalinity (eq/kg)  =   2.208e-10
                    Total carbon (mol/kg)  =   0.000e+00
                       Total CO2 (mol/kg)  =   0.000e+00
                      Temperature (deg C)  =  25.00
                  Electrical balance (eq)  =  -2.208e-10
 Percent error, 100*(Cat-|An|)/(Cat+|An|)  =  -0.11
                               Iterations  =   0
                                  Total H  = 1.110124e+02
                                  Total O  = 5.550622e+01

----------------------------Distribution of species----------------------------

                                               Log       Log       Log    mole V
   Species          Molality    Activity  Molality  Activity     Gamma   cm3/mol

   OH-             1.003e-07   1.002e-07    -6.999    -6.999    -0.000     -4.11
   H+              1.001e-07   1.000e-07    -7.000    -7.000    -0.000      0.00
   H2O             5.551e+01   1.000e+00     1.744     0.000     0.000     18.07
H(0)          1.416e-25
   H2              7.079e-26   7.079e-26   -25.150   -25.150     0.000     28.61
O(0)          0.000e+00
   O2              0.000e+00   0.000e+00   -42.080   -42.080     0.000     30.40

------------------------------Saturation indices-------------------------------

	Phase               SI   log IAP   log K(298 K,   1 atm)

	H2(g)           -22.05    -25.15   -3.10  H2
	H2O(g)           -1.50      0.00    1.50  H2O
	O2(g)           -39.19    -42.08   -2.89  O2


------------------
End of simulation.
------------------

--------------------------------------
Reading input data for simulation 197.
--------------------------------------

-------------------------------------------
Beginning of initial solution calculations.
-------------------------------------------

Initial solution 2.	

-----------------------------Solution composition------------------------------

	Elements           Molality       Moles

	Pure water     

----------------------------Description of solution----------------------------

                                       pH  =   7.000    
                                       pe  =   4.000    
       Specific Conductance (uS/cm, 25 oC) = 0
                          Density (g/cm3)  =   0.99705
                        Activity of water  =   1.000
                           Ionic strength  =   1.002e-07
                       Mass of water (kg)  =   1.000e+00
                 Total alkalinity (eq/kg)  =   2.208e-10
                    Total carbon (mol/kg)  =   0.000e+00
                       Total CO2 (mol/kg)  =   0.000e+00
                      Temperature (deg C)  =  25.00
                  Electrical balance (eq)  =  -2.208e-10
 Percent error, 100*(Cat-|An|)/(Cat+|An|)  =  -0.11
                               Iterations  =   0
                                  Total H  = 1.110124e+02
                                  Total O  = 5.550622e+01

----------------------------Distribution of species----------------------------

                                               Log       Log       Log    mole V
   Species          Molality    Activity  Molality  Activity     Gamma   cm3/mol

   OH-             1.003e-07   1.002e-07    -6.999    -6.999    -0.000     -4.11
   H+              1.001e-07   1.000e-07    -7.000    -7.000    -0.000      0.00
   H2O             5.551e+01   1.000e+00     1.744     0.000     0.000     18.07
H(0)          1.416e-25
   H2              7.079e-26   7.079e-26   -25.150   -25.150     0.000     28.61
O(0)          0.000e+00
   O2              0.000e+00   0.000e+00   -42.080   -42.080     0.000     30.40

------------------------------Saturation indices-------------------------------

	Phase               SI   log IAP   log K(298 K,   1 atm)

	H2(g)           -22.05    -25.15   -3.10  H2
	H2O(g)           -1.50      0.00    1.50  H2O
	O2(g)           -39.19    -42.08   -2.89  O2


------------------
End of simulation.
------------------

--------------------------------------
Reading input data for simulation 198.
--------------------------------------

------------------------------
End of Run after 0.18 Seconds.
------------------------------

