WARNING: Database file from DATABASE keyword is used; command line argument ignored.
   Input file: salt_sc
  Output file: salt_sc.out
Database file: ../database/phreeqc.dat

------------------
Reading data base.
------------------

	SOLUTION_MASTER_SPECIES
	SOLUTION_SPECIES
	PHASES
	EXCHANGE_MASTER_SPECIES
	EXCHANGE_SPECIES
	SURFACE_MASTER_SPECIES
	SURFACE_SPECIES
	RATES
	END
------------------------------------
Reading input data for simulation 1.
------------------------------------

	database ../database/phreeqc.dat
	SELECTED_OUTPUT 101
	    file                 salt_sc_101.sel
	USER_PUNCH 101
	    headings Mu SC
	    start
	10 PUNCH STR_F$(MU, 20, 12)
	20 PUNCH STR_F$(SC, 20, 10)
	    end
	SOLUTION_SPREAD
	 temp 20
	 units mol/L
	K	Cl#     HB_SC
	0.067069081	1 charge #     8200
	0.134138162	1 charge #     15700
	0.202548625	1 charge #     22700
	0.270959088	1 charge #     29500
	0.340710932	1 charge #     36500
	0.409121395	1 charge #     43600
	0.478873239	1 charge #     50600
	0.549966465	1 charge #     57600
	0.690811536	1 charge #     71900
	0.83433937	1 charge #     86200
	0.979208585	1 charge #     100000
	1.052984574	1 charge #     108000
	USER_GRAPH
	  -headings KCl
	  -axis_titles "Handbook of Chemistry and Physics: SC / (mmho/cm)" "PHREEQC"
	  -axis_scale x_axis 0 120
	  -axis_scale y_axis 0 120
	  -initial_solutions true
	  10 DATA 8200, 15700, 22700, 29500, 36500, 43600, 50600, 57600, 71900, 86200, 100000, 108000
	  20 dim HB(12)
	  30 for i = 1 to 12
	  40   READ HB(i)
	  50 next i
	  60 plot_xy HB(cell_no) / 1e3, SC / 1e3, line_width = 0
	END
-------------------------------------------
Beginning of initial solution calculations.
-------------------------------------------

Initial solution 1.	

-----------------------------Solution composition------------------------------

	Elements           Molality       Moles

	Cl                6.972e-02   6.972e-02  Charge balance
	K                 6.972e-02   6.972e-02

----------------------------Description of solution----------------------------

                                       pH  =   7.000    
                                       pe  =   4.000    
      Specific Conductance (µS/cm,  20°C)  = 8255
                          Density (g/cm³)  =   1.00150
                               Volume (L)  =   1.00369
                        Activity of water  =   0.998
                 Ionic strength (mol/kgw)  =   6.972e-02
                       Mass of water (kg)  =   1.000e+00
                 Total alkalinity (eq/kg)  =  -3.240e-08
                         Temperature (°C)  =  20.00
                  Electrical balance (eq)  =  -5.176e-10
 Percent error, 100*(Cat-|An|)/(Cat+|An|)  =  -0.00
                               Iterations  =   5
                                  Total H  = 1.110124e+02
                                  Total O  = 5.550622e+01

----------------------------Distribution of species----------------------------

                                               Log       Log       Log    mole V
   Species          Molality    Activity  Molality  Activity     Gamma   cm³/mol

   H+              1.189e-07   1.000e-07    -6.925    -7.000    -0.075      0.00
   OH-             8.647e-08   6.829e-08    -7.063    -7.166    -0.103     -4.04
   H2O             5.551e+01   9.976e-01     1.744    -0.001     0.000     18.05
Cl            6.972e-02
   Cl-             6.972e-02   5.533e-02    -1.157    -1.257    -0.100     18.11
H(0)          1.466e-25
   H2              7.329e-26   7.447e-26   -25.135   -25.128     0.007     28.61
K             6.972e-02
   K+              6.972e-02   5.520e-02    -1.157    -1.258    -0.101      9.02
O(0)          0.000e+00
   O2              0.000e+00   0.000e+00   -43.774   -43.767     0.007     29.98

------------------------------Saturation indices-------------------------------

  Phase               SI** log IAP   log K(293 K,   1 atm)

  H2(g)           -22.04    -25.13   -3.09  H2
  H2O(g)           -1.63     -0.00    1.63  H2O
  O2(g)           -40.91    -43.77   -2.85  O2
  Sylvite          -3.39     -2.52    0.87  KCl

**For a gas, SI = log10(fugacity). Fugacity = pressure * phi / 1 atm.
  For ideal gases, phi = 1.

Initial solution 2.	

-----------------------------Solution composition------------------------------

	Elements           Molality       Moles

	Cl                1.398e-01   1.398e-01  Charge balance
	K                 1.398e-01   1.398e-01

----------------------------Description of solution----------------------------

                                       pH  =   7.000    
                                       pe  =   4.000    
      Specific Conductance (µS/cm,  20°C)  = 16037
                          Density (g/cm³)  =   1.00478
                               Volume (L)  =   1.00562
                        Activity of water  =   0.995
                 Ionic strength (mol/kgw)  =   1.398e-01
                       Mass of water (kg)  =   1.000e+00
                 Total alkalinity (eq/kg)  =  -3.060e-08
                         Temperature (°C)  =  20.00
                  Electrical balance (eq)  =  -8.205e-15
 Percent error, 100*(Cat-|An|)/(Cat+|An|)  =  -0.00
                               Iterations  =   5 (10 overall)
                                  Total H  = 1.110124e+02
                                  Total O  = 5.550622e+01

----------------------------Distribution of species----------------------------

                                               Log       Log       Log    mole V
   Species          Molality    Activity  Molality  Activity     Gamma   cm³/mol

   H+              1.230e-07   1.000e-07    -6.910    -7.000    -0.090      0.00
   OH-             9.241e-08   6.813e-08    -7.034    -7.167    -0.132     -3.87
   H2O             5.551e+01   9.952e-01     1.744    -0.002     0.000     18.05
Cl            1.398e-01
   Cl-             1.398e-01   1.040e-01    -0.854    -0.983    -0.129     18.21
H(0)          1.442e-25
   H2              7.211e-26   7.447e-26   -25.142   -25.128     0.014     28.61
K             1.398e-01
   K+              1.398e-01   1.036e-01    -0.854    -0.985    -0.130      9.11
O(0)          0.000e+00
   O2              0.000e+00   0.000e+00   -43.783   -43.769     0.014     29.98

------------------------------Saturation indices-------------------------------

  Phase               SI** log IAP   log K(293 K,   1 atm)

  H2(g)           -22.04    -25.13   -3.09  H2
  H2O(g)           -1.64     -0.00    1.63  H2O
  O2(g)           -40.91    -43.77   -2.85  O2
  Sylvite          -2.84     -1.97    0.87  KCl

**For a gas, SI = log10(fugacity). Fugacity = pressure * phi / 1 atm.
  For ideal gases, phi = 1.

Initial solution 3.	

-----------------------------Solution composition------------------------------

	Elements           Molality       Moles

	Cl                2.117e-01   2.117e-01  Charge balance
	K                 2.117e-01   2.117e-01

----------------------------Description of solution----------------------------

                                       pH  =   7.000    
                                       pe  =   4.000    
      Specific Conductance (µS/cm,  20°C)  = 23731
                          Density (g/cm³)  =   1.00811
                               Volume (L)  =   1.00762
                        Activity of water  =   0.993
                 Ionic strength (mol/kgw)  =   2.117e-01
                       Mass of water (kg)  =   1.000e+00
                 Total alkalinity (eq/kg)  =  -2.901e-08
                         Temperature (°C)  =  20.00
                  Electrical balance (eq)  =  -1.632e-10
 Percent error, 100*(Cat-|An|)/(Cat+|An|)  =  -0.00
                               Iterations  =   5 (15 overall)
                                  Total H  = 1.110124e+02
                                  Total O  = 5.550622e+01

----------------------------Distribution of species----------------------------

                                               Log       Log       Log    mole V
   Species          Molality    Activity  Molality  Activity     Gamma   cm³/mol

   H+              1.255e-07   1.000e-07    -6.901    -7.000    -0.099      0.00
   OH-             9.652e-08   6.796e-08    -7.015    -7.168    -0.152     -3.71
   H2O             5.551e+01   9.928e-01     1.744    -0.003     0.000     18.05
Cl            2.117e-01
   Cl-             2.117e-01   1.510e-01    -0.674    -0.821    -0.147     18.29
H(0)          1.419e-25
   H2              7.093e-26   7.447e-26   -25.149   -25.128     0.021     28.61
K             2.117e-01
   K+              2.117e-01   1.502e-01    -0.674    -0.823    -0.149      9.18
O(0)          0.000e+00
   O2              0.000e+00   0.000e+00   -43.793   -43.771     0.021     29.98

------------------------------Saturation indices-------------------------------

  Phase               SI** log IAP   log K(293 K,   1 atm)

  H2(g)           -22.04    -25.13   -3.09  H2
  H2O(g)           -1.64     -0.00    1.63  H2O
  O2(g)           -40.92    -43.77   -2.85  O2
  Sylvite          -2.52     -1.64    0.87  KCl

**For a gas, SI = log10(fugacity). Fugacity = pressure * phi / 1 atm.
  For ideal gases, phi = 1.

Initial solution 4.	

-----------------------------Solution composition------------------------------

	Elements           Molality       Moles

	Cl                2.840e-01   2.840e-01  Charge balance
	K                 2.840e-01   2.840e-01

----------------------------Description of solution----------------------------

                                       pH  =   7.000    
                                       pe  =   4.000    
      Specific Conductance (µS/cm,  20°C)  = 31239
                          Density (g/cm³)  =   1.01143
                               Volume (L)  =   1.00964
                        Activity of water  =   0.990
                 Ionic strength (mol/kgw)  =   2.840e-01
                       Mass of water (kg)  =   1.000e+00
                 Total alkalinity (eq/kg)  =  -2.764e-08
                         Temperature (°C)  =  20.00
                  Electrical balance (eq)  =  -4.408e-14
 Percent error, 100*(Cat-|An|)/(Cat+|An|)  =  -0.00
                               Iterations  =   6 (21 overall)
                                  Total H  = 1.110124e+02
                                  Total O  = 5.550622e+01

----------------------------Distribution of species----------------------------

                                               Log       Log       Log    mole V
   Species          Molality    Activity  Molality  Activity     Gamma   cm³/mol

   H+              1.273e-07   1.000e-07    -6.895    -7.000    -0.105      0.00
   OH-             9.965e-08   6.779e-08    -7.002    -7.169    -0.167     -3.57
   H2O             5.551e+01   9.903e-01     1.744    -0.004     0.000     18.05
Cl            2.840e-01
   Cl-             2.840e-01   1.964e-01    -0.547    -0.707    -0.160     18.35
H(0)          1.395e-25
   H2              6.976e-26   7.447e-26   -25.156   -25.128     0.028     28.61
K             2.840e-01
   K+              2.840e-01   1.951e-01    -0.547    -0.710    -0.163      9.24
O(0)          0.000e+00
   O2              0.000e+00   0.000e+00   -43.802   -43.774     0.028     29.98

------------------------------Saturation indices-------------------------------

  Phase               SI** log IAP   log K(293 K,   1 atm)

  H2(g)           -22.04    -25.13   -3.09  H2
  H2O(g)           -1.64     -0.00    1.63  H2O
  O2(g)           -40.92    -43.77   -2.85  O2
  Sylvite          -2.29     -1.42    0.87  KCl

**For a gas, SI = log10(fugacity). Fugacity = pressure * phi / 1 atm.
  For ideal gases, phi = 1.

Initial solution 5.	

-----------------------------Solution composition------------------------------

	Elements           Molality       Moles

	Cl                3.582e-01   3.582e-01  Charge balance
	K                 3.582e-01   3.582e-01

----------------------------Description of solution----------------------------

                                       pH  =   7.000    
                                       pe  =   4.000    
      Specific Conductance (µS/cm,  20°C)  = 38734
                          Density (g/cm³)  =   1.01481
                               Volume (L)  =   1.01172
                        Activity of water  =   0.988
                 Ionic strength (mol/kgw)  =   3.582e-01
                       Mass of water (kg)  =   1.000e+00
                 Total alkalinity (eq/kg)  =  -2.644e-08
                         Temperature (°C)  =  20.00
                  Electrical balance (eq)  =  -1.772e-10
 Percent error, 100*(Cat-|An|)/(Cat+|An|)  =  -0.00
                               Iterations  =   6 (27 overall)
                                  Total H  = 1.110124e+02
                                  Total O  = 5.550622e+01

----------------------------Distribution of species----------------------------

                                               Log       Log       Log    mole V
   Species          Molality    Activity  Molality  Activity     Gamma   cm³/mol

   H+              1.287e-07   1.000e-07    -6.891    -7.000    -0.109      0.00
   OH-             1.022e-07   6.762e-08    -6.990    -7.170    -0.179     -3.43
   H2O             5.551e+01   9.878e-01     1.744    -0.005     0.000     18.05
Cl            3.582e-01
   Cl-             3.582e-01   2.418e-01    -0.446    -0.617    -0.171     18.41
H(0)          1.372e-25
   H2              6.858e-26   7.447e-26   -25.164   -25.128     0.036     28.61
K             3.582e-01
   K+              3.582e-01   2.399e-01    -0.446    -0.620    -0.174      9.29
O(0)          0.000e+00
   O2              0.000e+00   0.000e+00   -43.812   -43.776     0.036     29.98

------------------------------Saturation indices-------------------------------

  Phase               SI** log IAP   log K(293 K,   1 atm)

  H2(g)           -22.04    -25.13   -3.09  H2
  H2O(g)           -1.64     -0.01    1.63  H2O
  O2(g)           -40.92    -43.78   -2.85  O2
  Sylvite          -2.11     -1.24    0.87  KCl

**For a gas, SI = log10(fugacity). Fugacity = pressure * phi / 1 atm.
  For ideal gases, phi = 1.

Initial solution 6.	

-----------------------------Solution composition------------------------------

	Elements           Molality       Moles

	Cl                4.313e-01   4.313e-01  Charge balance
	K                 4.313e-01   4.313e-01

----------------------------Description of solution----------------------------

                                       pH  =   7.000    
                                       pe  =   4.000    
      Specific Conductance (µS/cm,  20°C)  = 45946
                          Density (g/cm³)  =   1.01811
                               Volume (L)  =   1.01379
                        Activity of water  =   0.985
                 Ionic strength (mol/kgw)  =   4.313e-01
                       Mass of water (kg)  =   1.000e+00
                 Total alkalinity (eq/kg)  =  -2.541e-08
                         Temperature (°C)  =  20.00
                  Electrical balance (eq)  =  -2.088e-15
 Percent error, 100*(Cat-|An|)/(Cat+|An|)  =  -0.00
                               Iterations  =   7 (34 overall)
                                  Total H  = 1.110124e+02
                                  Total O  = 5.550622e+01

----------------------------Distribution of species----------------------------

                                               Log       Log       Log    mole V
   Species          Molality    Activity  Molality  Activity     Gamma   cm³/mol

   H+              1.297e-07   1.000e-07    -6.887    -7.000    -0.113      0.00
   OH-             1.043e-07   6.745e-08    -6.982    -7.171    -0.189     -3.30
   H2O             5.551e+01   9.853e-01     1.744    -0.006     0.000     18.05
Cl            4.313e-01
   Cl-             4.313e-01   2.855e-01    -0.365    -0.544    -0.179     18.46
H(0)          1.349e-25
   H2              6.743e-26   7.447e-26   -25.171   -25.128     0.043     28.61
K             4.313e-01
   K+              4.313e-01   2.830e-01    -0.365    -0.548    -0.183      9.34
O(0)          0.000e+00
   O2              0.000e+00   0.000e+00   -43.821   -43.778     0.043     29.98

------------------------------Saturation indices-------------------------------

  Phase               SI** log IAP   log K(293 K,   1 atm)

  H2(g)           -22.04    -25.13   -3.09  H2
  H2O(g)           -1.64     -0.01    1.63  H2O
  O2(g)           -40.92    -43.78   -2.85  O2
  Sylvite          -1.97     -1.09    0.87  KCl

**For a gas, SI = log10(fugacity). Fugacity = pressure * phi / 1 atm.
  For ideal gases, phi = 1.

Initial solution 7.	

-----------------------------Solution composition------------------------------

	Elements           Molality       Moles

	Cl                5.063e-01   5.063e-01  Charge balance
	K                 5.063e-01   5.063e-01

----------------------------Description of solution----------------------------

                                       pH  =   7.000    
                                       pe  =   4.000    
      Specific Conductance (µS/cm,  20°C)  = 53172
                          Density (g/cm³)  =   1.02148
                               Volume (L)  =   1.01593
                        Activity of water  =   0.983
                 Ionic strength (mol/kgw)  =   5.063e-01
                       Mass of water (kg)  =   1.000e+00
                 Total alkalinity (eq/kg)  =  -2.448e-08
                         Temperature (°C)  =  20.00
                  Electrical balance (eq)  =  -5.093e-12
 Percent error, 100*(Cat-|An|)/(Cat+|An|)  =  -0.00
                               Iterations  =   7 (41 overall)
                                  Total H  = 1.110124e+02
                                  Total O  = 5.550622e+01

----------------------------Distribution of species----------------------------

                                               Log       Log       Log    mole V
   Species          Molality    Activity  Molality  Activity     Gamma   cm³/mol

   H+              1.307e-07   1.000e-07    -6.884    -7.000    -0.116      0.00
   OH-             1.062e-07   6.728e-08    -6.974    -7.172    -0.198     -3.17
   H2O             5.551e+01   9.828e-01     1.744    -0.008     0.000     18.05
Cl            5.063e-01
   Cl-             5.063e-01   3.297e-01    -0.296    -0.482    -0.186     18.51
H(0)          1.326e-25
   H2              6.628e-26   7.447e-26   -25.179   -25.128     0.051     28.61
K             5.063e-01
   K+              5.063e-01   3.265e-01    -0.296    -0.486    -0.191      9.39
O(0)          0.000e+00
   O2              0.000e+00   0.000e+00   -43.831   -43.780     0.051     29.98

------------------------------Saturation indices-------------------------------

  Phase               SI** log IAP   log K(293 K,   1 atm)

  H2(g)           -22.04    -25.13   -3.09  H2
  H2O(g)           -1.64     -0.01    1.63  H2O
  O2(g)           -40.93    -43.78   -2.85  O2
  Sylvite          -1.84     -0.97    0.87  KCl

**For a gas, SI = log10(fugacity). Fugacity = pressure * phi / 1 atm.
  For ideal gases, phi = 1.

Initial solution 8.	

-----------------------------Solution composition------------------------------

	Elements           Molality       Moles

	Cl                5.832e-01   5.832e-01  Charge balance
	K                 5.832e-01   5.832e-01

----------------------------Description of solution----------------------------

                                       pH  =   7.000    
                                       pe  =   4.000    
      Specific Conductance (µS/cm,  20°C)  = 60415
                          Density (g/cm³)  =   1.02490
                               Volume (L)  =   1.01813
                        Activity of water  =   0.980
                 Ionic strength (mol/kgw)  =   5.832e-01
                       Mass of water (kg)  =   1.000e+00
                 Total alkalinity (eq/kg)  =  -2.365e-08
                         Temperature (°C)  =  20.00
                  Electrical balance (eq)  =  -1.893e-09
 Percent error, 100*(Cat-|An|)/(Cat+|An|)  =  -0.00
                               Iterations  =   7 (48 overall)
                                  Total H  = 1.110124e+02
                                  Total O  = 5.550622e+01

----------------------------Distribution of species----------------------------

                                               Log       Log       Log    mole V
   Species          Molality    Activity  Molality  Activity     Gamma   cm³/mol

   H+              1.314e-07   1.000e-07    -6.881    -7.000    -0.119      0.00
   OH-             1.078e-07   6.710e-08    -6.967    -7.173    -0.206     -3.03
   H2O             5.551e+01   9.802e-01     1.744    -0.009     0.000     18.05
Cl            5.832e-01
   Cl-             5.832e-01   3.744e-01    -0.234    -0.427    -0.192     18.55
H(0)          1.302e-25
   H2              6.511e-26   7.447e-26   -25.186   -25.128     0.058     28.61
K             5.832e-01
   K+              5.832e-01   3.704e-01    -0.234    -0.431    -0.197      9.44
O(0)          0.000e+00
   O2              0.000e+00   0.000e+00   -43.841   -43.783     0.058     29.98

------------------------------Saturation indices-------------------------------

  Phase               SI** log IAP   log K(293 K,   1 atm)

  H2(g)           -22.04    -25.13   -3.09  H2
  H2O(g)           -1.64     -0.01    1.63  H2O
  O2(g)           -40.93    -43.78   -2.85  O2
  Sylvite          -1.73     -0.86    0.87  KCl

**For a gas, SI = log10(fugacity). Fugacity = pressure * phi / 1 atm.
  For ideal gases, phi = 1.

Initial solution 9.	

-----------------------------Solution composition------------------------------

	Elements           Molality       Moles

	Cl                7.368e-01   7.368e-01  Charge balance
	K                 7.368e-01   7.368e-01

----------------------------Description of solution----------------------------

                                       pH  =   7.000    
                                       pe  =   4.000    
      Specific Conductance (µS/cm,  20°C)  = 74436
                          Density (g/cm³)  =   1.03166
                               Volume (L)  =   1.02256
                        Activity of water  =   0.975
                 Ionic strength (mol/kgw)  =   7.368e-01
                       Mass of water (kg)  =   1.000e+00
                 Total alkalinity (eq/kg)  =  -2.227e-08
                         Temperature (°C)  =  20.00
                  Electrical balance (eq)  =  -1.829e-11
 Percent error, 100*(Cat-|An|)/(Cat+|An|)  =  -0.00
                               Iterations  =   8 (56 overall)
                                  Total H  = 1.110124e+02
                                  Total O  = 5.550622e+01

----------------------------Distribution of species----------------------------

                                               Log       Log       Log    mole V
   Species          Molality    Activity  Molality  Activity     Gamma   cm³/mol

   H+              1.327e-07   1.000e-07    -6.877    -7.000    -0.123      0.00
   OH-             1.104e-07   6.674e-08    -6.957    -7.176    -0.219     -2.78
   H2O             5.551e+01   9.749e-01     1.744    -0.011     0.000     18.05
Cl            7.368e-01
   Cl-             7.368e-01   4.625e-01    -0.133    -0.335    -0.202     18.64
H(0)          1.257e-25
   H2              6.285e-26   7.447e-26   -25.202   -25.128     0.074     28.61
K             7.368e-01
   K+              7.368e-01   4.567e-01    -0.133    -0.340    -0.208      9.53
O(0)          0.000e+00
   O2              0.000e+00   0.000e+00   -43.861   -43.787     0.074     29.98

------------------------------Saturation indices-------------------------------

  Phase               SI** log IAP   log K(293 K,   1 atm)

  H2(g)           -22.04    -25.13   -3.09  H2
  H2O(g)           -1.64     -0.01    1.63  H2O
  O2(g)           -40.93    -43.79   -2.85  O2
  Sylvite          -1.55     -0.68    0.87  KCl

**For a gas, SI = log10(fugacity). Fugacity = pressure * phi / 1 atm.
  For ideal gases, phi = 1.

Initial solution 10.	

-----------------------------Solution composition------------------------------

	Elements           Molality       Moles

	Cl                8.953e-01   8.953e-01  Charge balance
	K                 8.953e-01   8.953e-01

----------------------------Description of solution----------------------------

                                       pH  =   7.000    
                                       pe  =   4.000    
      Specific Conductance (µS/cm,  20°C)  = 88314
                          Density (g/cm³)  =   1.03853
                               Volume (L)  =   1.02717
                        Activity of water  =   0.970
                 Ionic strength (mol/kgw)  =   8.953e-01
                       Mass of water (kg)  =   1.000e+00
                 Total alkalinity (eq/kg)  =  -2.115e-08
                         Temperature (°C)  =  20.00
                  Electrical balance (eq)  =  -5.065e-12
 Percent error, 100*(Cat-|An|)/(Cat+|An|)  =  -0.00
                               Iterations  =   9 (65 overall)
                                  Total H  = 1.110124e+02
                                  Total O  = 5.550622e+01

----------------------------Distribution of species----------------------------

                                               Log       Log       Log    mole V
   Species          Molality    Activity  Molality  Activity     Gamma   cm³/mol

   H+              1.337e-07   1.000e-07    -6.874    -7.000    -0.126      0.00
   OH-             1.126e-07   6.637e-08    -6.949    -7.178    -0.229     -2.53
   H2O             5.551e+01   9.696e-01     1.744    -0.013     0.000     18.05
Cl            8.953e-01
   Cl-             8.953e-01   5.521e-01    -0.048    -0.258    -0.210     18.71
H(0)          1.212e-25
   H2              6.060e-26   7.447e-26   -25.218   -25.128     0.090     28.61
K             8.953e-01
   K+              8.953e-01   5.444e-01    -0.048    -0.264    -0.216      9.63
O(0)          0.000e+00
   O2              0.000e+00   0.000e+00   -43.882   -43.792     0.090     29.98

------------------------------Saturation indices-------------------------------

  Phase               SI** log IAP   log K(293 K,   1 atm)

  H2(g)           -22.04    -25.13   -3.09  H2
  H2O(g)           -1.65     -0.01    1.63  H2O
  O2(g)           -40.94    -43.79   -2.85  O2
  Sylvite          -1.40     -0.52    0.87  KCl

**For a gas, SI = log10(fugacity). Fugacity = pressure * phi / 1 atm.
  For ideal gases, phi = 1.

Initial solution 11.	

-----------------------------Solution composition------------------------------

	Elements           Molality       Moles

	Cl                1.057e+00   1.057e+00  Charge balance
	K                 1.057e+00   1.057e+00

----------------------------Description of solution----------------------------

                                       pH  =   7.000    
                                       pe  =   4.000    
      Specific Conductance (µS/cm,  20°C)  = 101942
                          Density (g/cm³)  =   1.04544
                               Volume (L)  =   1.03193
                        Activity of water  =   0.964
                 Ionic strength (mol/kgw)  =   1.057e+00
                       Mass of water (kg)  =   1.000e+00
                 Total alkalinity (eq/kg)  =  -2.025e-08
                         Temperature (°C)  =  20.00
                  Electrical balance (eq)  =  -2.974e-12
 Percent error, 100*(Cat-|An|)/(Cat+|An|)  =  -0.00
                               Iterations  =   9 (74 overall)
                                  Total H  = 1.110124e+02
                                  Total O  = 5.550622e+01

----------------------------Distribution of species----------------------------

                                               Log       Log       Log    mole V
   Species          Molality    Activity  Molality  Activity     Gamma   cm³/mol

   H+              1.346e-07   1.000e-07    -6.871    -7.000    -0.129      0.00
   OH-             1.143e-07   6.600e-08    -6.942    -7.180    -0.239     -2.28
   H2O             5.551e+01   9.641e-01     1.744    -0.016     0.000     18.05
Cl            1.057e+00
   Cl-             1.057e+00   6.430e-01     0.024    -0.192    -0.216     18.78
H(0)          1.168e-25
   H2              5.838e-26   7.447e-26   -25.234   -25.128     0.106     28.61
K             1.057e+00
   K+              1.057e+00   6.330e-01     0.024    -0.199    -0.223      9.72
O(0)          0.000e+00
   O2              0.000e+00   0.000e+00   -43.903   -43.797     0.106     29.98

------------------------------Saturation indices-------------------------------

  Phase               SI** log IAP   log K(293 K,   1 atm)

  H2(g)           -22.04    -25.13   -3.09  H2
  H2O(g)           -1.65     -0.02    1.63  H2O
  O2(g)           -40.94    -43.80   -2.85  O2
  Sylvite          -1.27     -0.39    0.87  KCl

**For a gas, SI = log10(fugacity). Fugacity = pressure * phi / 1 atm.
  For ideal gases, phi = 1.

Initial solution 12.	

-----------------------------Solution composition------------------------------

	Elements           Molality       Moles

	Cl                1.140e+00   1.140e+00  Charge balance
	K                 1.140e+00   1.140e+00

----------------------------Description of solution----------------------------

                                       pH  =   7.000    
                                       pe  =   4.000    
      Specific Conductance (µS/cm,  20°C)  = 108745
                          Density (g/cm³)  =   1.04895
                               Volume (L)  =   1.03439
                        Activity of water  =   0.961
                 Ionic strength (mol/kgw)  =   1.140e+00
                       Mass of water (kg)  =   1.000e+00
                 Total alkalinity (eq/kg)  =  -1.987e-08
                         Temperature (°C)  =  20.00
                  Electrical balance (eq)  =  -8.413e-13
 Percent error, 100*(Cat-|An|)/(Cat+|An|)  =  -0.00
                               Iterations  =   9 (83 overall)
                                  Total H  = 1.110124e+02
                                  Total O  = 5.550622e+01

----------------------------Distribution of species----------------------------

                                               Log       Log       Log    mole V
   Species          Molality    Activity  Molality  Activity     Gamma   cm³/mol

   H+              1.349e-07   1.000e-07    -6.870    -7.000    -0.130      0.00
   OH-             1.151e-07   6.580e-08    -6.939    -7.182    -0.243     -2.15
   H2O             5.551e+01   9.612e-01     1.744    -0.017     0.000     18.05
Cl            1.140e+00
   Cl-             1.140e+00   6.895e-01     0.057    -0.161    -0.219     18.82
H(0)          1.145e-25
   H2              5.727e-26   7.447e-26   -25.242   -25.128     0.114     28.61
K             1.140e+00
   K+              1.140e+00   6.783e-01     0.057    -0.169    -0.226      9.76
O(0)          0.000e+00
   O2              0.000e+00   0.000e+00   -43.914   -43.799     0.114     29.98

------------------------------Saturation indices-------------------------------

  Phase               SI** log IAP   log K(293 K,   1 atm)

  H2(g)           -22.04    -25.13   -3.09  H2
  H2O(g)           -1.65     -0.02    1.63  H2O
  O2(g)           -40.95    -43.80   -2.85  O2
  Sylvite          -1.20     -0.33    0.87  KCl

**For a gas, SI = log10(fugacity). Fugacity = pressure * phi / 1 atm.
  For ideal gases, phi = 1.

------------------
End of simulation.
------------------

------------------------------------
Reading input data for simulation 2.
------------------------------------

	SOLUTION_SPREAD
	 temp 20
	 units mol/L
	Na	Cl#     HB_SC
	0.085557837	1 charge #     8200
	0.172826831	1 charge #     16000
	0.258384668	1 charge #     23200
	0.345653662	1 charge #     30200
	0.434633812	1 charge #     37100
	0.523613963	1 charge #     44000
	0.612594114	1 charge #     50700
	0.684462697	1 charge #     56000
	0.865845311	1 charge #     68900
	1.031827515	1 charge #     80000
	1.368925394	1 charge #     101000
	1.676933607	1 charge #     118000
	USER_GRAPH
	  -headings NaCl
	  10 DATA 8200, 16000, 23200, 30200, 37100, 44000, 50700, 56000, 68900, 80000, 101000, 118000
	  20 dim HB(12)
	  30 for i = 1 to 12
	  40   READ HB(i)
	  50 next i
	  60 plot_xy HB(cell_no - 12) / 1e3, SC / 1e3, line_width = 0
	END
-------------------------------------------
Beginning of initial solution calculations.
-------------------------------------------

Initial solution 13.	

-----------------------------Solution composition------------------------------

	Elements           Molality       Moles

	Cl                8.888e-02   8.888e-02  Charge balance
	Na                8.888e-02   8.888e-02

----------------------------Description of solution----------------------------

                                       pH  =   7.000    
                                       pe  =   4.000    
      Specific Conductance (µS/cm,  20°C)  = 8562
                          Density (g/cm³)  =   1.00190
                               Volume (L)  =   1.00329
                        Activity of water  =   0.997
                 Ionic strength (mol/kgw)  =   8.888e-02
                       Mass of water (kg)  =   1.000e+00
                 Total alkalinity (eq/kg)  =  -3.189e-08
                         Temperature (°C)  =  20.00
                  Electrical balance (eq)  =  -5.853e-12
 Percent error, 100*(Cat-|An|)/(Cat+|An|)  =  -0.00
                               Iterations  =   5
                                  Total H  = 1.110124e+02
                                  Total O  = 5.550622e+01

----------------------------Distribution of species----------------------------

                                               Log       Log       Log    mole V
   Species          Molality    Activity  Molality  Activity     Gamma   cm³/mol

   H+              1.203e-07   1.000e-07    -6.920    -7.000    -0.080      0.00
   OH-             8.840e-08   6.825e-08    -7.054    -7.166    -0.112     -3.99
   H2O             5.551e+01   9.970e-01     1.744    -0.001     0.000     18.05
Cl            8.888e-02
   Cl-             8.888e-02   6.903e-02    -1.051    -1.161    -0.110     18.15
H(0)          1.459e-25
   H2              7.296e-26   7.447e-26   -25.137   -25.128     0.009     28.61
Na            8.888e-02
   Na+             8.888e-02   7.052e-02    -1.051    -1.152    -0.101     -1.39
   NaOH            4.715e-19   4.813e-19   -18.326   -18.318     0.009     (0)  
O(0)          0.000e+00
   O2              0.000e+00   0.000e+00   -43.777   -43.768     0.009     29.98

------------------------------Saturation indices-------------------------------

  Phase               SI** log IAP   log K(293 K,   1 atm)

  H2(g)           -22.04    -25.13   -3.09  H2
  H2O(g)           -1.63     -0.00    1.63  H2O
  Halite           -3.88     -2.31    1.57  NaCl
  O2(g)           -40.91    -43.77   -2.85  O2

**For a gas, SI = log10(fugacity). Fugacity = pressure * phi / 1 atm.
  For ideal gases, phi = 1.

Initial solution 14.	

-----------------------------Solution composition------------------------------

	Elements           Molality       Moles

	Cl                1.799e-01   1.799e-01  Charge balance
	Na                1.799e-01   1.799e-01

----------------------------Description of solution----------------------------

                                       pH  =   7.000    
                                       pe  =   4.000    
      Specific Conductance (µS/cm,  20°C)  = 16506
                          Density (g/cm³)  =   1.00562
                               Volume (L)  =   1.00486
                        Activity of water  =   0.994
                 Ionic strength (mol/kgw)  =   1.799e-01
                       Mass of water (kg)  =   1.000e+00
                 Total alkalinity (eq/kg)  =  -2.968e-08
                         Temperature (°C)  =  20.00
                  Electrical balance (eq)  =  -2.656e-12
 Percent error, 100*(Cat-|An|)/(Cat+|An|)  =  -0.00
                               Iterations  =   5 (10 overall)
                                  Total H  = 1.110124e+02
                                  Total O  = 5.550622e+01

----------------------------Distribution of species----------------------------

                                               Log       Log       Log    mole V
   Species          Molality    Activity  Molality  Activity     Gamma   cm³/mol

   H+              1.245e-07   1.000e-07    -6.905    -7.000    -0.095      0.00
   OH-             9.486e-08   6.804e-08    -7.023    -7.167    -0.144     -3.78
   H2O             5.551e+01   9.939e-01     1.744    -0.003     0.000     18.05
Cl            1.799e-01
   Cl-             1.799e-01   1.305e-01    -0.745    -0.884    -0.140     18.26
H(0)          1.429e-25
   H2              7.145e-26   7.447e-26   -25.146   -25.128     0.018     28.61
Na            1.799e-01
   Na+             1.799e-01   1.358e-01    -0.745    -0.867    -0.122     -1.23
   NaOH            8.865e-19   9.240e-19   -18.052   -18.034     0.018     (0)  
O(0)          0.000e+00
   O2              0.000e+00   0.000e+00   -43.788   -43.770     0.018     29.98

------------------------------Saturation indices-------------------------------

  Phase               SI** log IAP   log K(293 K,   1 atm)

  H2(g)           -22.04    -25.13   -3.09  H2
  H2O(g)           -1.64     -0.00    1.63  H2O
  Halite           -3.32     -1.75    1.57  NaCl
  O2(g)           -40.92    -43.77   -2.85  O2

**For a gas, SI = log10(fugacity). Fugacity = pressure * phi / 1 atm.
  For ideal gases, phi = 1.

Initial solution 15.	

-----------------------------Solution composition------------------------------

	Elements           Molality       Moles

	Cl                2.695e-01   2.695e-01  Charge balance
	Na                2.695e-01   2.695e-01

----------------------------Description of solution----------------------------

                                       pH  =   7.000    
                                       pe  =   4.000    
      Specific Conductance (µS/cm,  20°C)  = 23885
                          Density (g/cm³)  =   1.00925
                               Volume (L)  =   1.00645
                        Activity of water  =   0.991
                 Ionic strength (mol/kgw)  =   2.695e-01
                       Mass of water (kg)  =   1.000e+00
                 Total alkalinity (eq/kg)  =  -2.790e-08
                         Temperature (°C)  =  20.00
                  Electrical balance (eq)  =  -8.898e-15
 Percent error, 100*(Cat-|An|)/(Cat+|An|)  =  -0.00
                               Iterations  =   6 (16 overall)
                                  Total H  = 1.110124e+02
                                  Total O  = 5.550622e+01

----------------------------Distribution of species----------------------------

                                               Log       Log       Log    mole V
   Species          Molality    Activity  Molality  Activity     Gamma   cm³/mol

   H+              1.270e-07   1.000e-07    -6.896    -7.000    -0.104      0.00
   OH-             9.908e-08   6.783e-08    -7.004    -7.169    -0.165     -3.60
   H2O             5.551e+01   9.908e-01     1.744    -0.004     0.000     18.05
Cl            2.695e-01
   Cl-             2.695e-01   1.874e-01    -0.569    -0.727    -0.158     18.34
H(0)          1.400e-25
   H2              6.999e-26   7.447e-26   -25.155   -25.128     0.027     28.61
Na            2.695e-01
   Na+             2.695e-01   1.985e-01    -0.569    -0.702    -0.133     -1.11
   NaOH            1.265e-18   1.346e-18   -17.898   -17.871     0.027     (0)  
O(0)          0.000e+00
   O2              0.000e+00   0.000e+00   -43.800   -43.773     0.027     29.98

------------------------------Saturation indices-------------------------------

  Phase               SI** log IAP   log K(293 K,   1 atm)

  H2(g)           -22.04    -25.13   -3.09  H2
  H2O(g)           -1.64     -0.00    1.63  H2O
  Halite           -3.00     -1.43    1.57  NaCl
  O2(g)           -40.92    -43.77   -2.85  O2

**For a gas, SI = log10(fugacity). Fugacity = pressure * phi / 1 atm.
  For ideal gases, phi = 1.

Initial solution 16.	

-----------------------------Solution composition------------------------------

	Elements           Molality       Moles

	Cl                3.613e-01   3.613e-01  Charge balance
	Na                3.613e-01   3.613e-01

----------------------------Description of solution----------------------------

                                       pH  =   7.000    
                                       pe  =   4.000    
      Specific Conductance (µS/cm,  20°C)  = 31094
                          Density (g/cm³)  =   1.01292
                               Volume (L)  =   1.00809
                        Activity of water  =   0.988
                 Ionic strength (mol/kgw)  =   3.613e-01
                       Mass of water (kg)  =   1.000e+00
                 Total alkalinity (eq/kg)  =  -2.639e-08
                         Temperature (°C)  =  20.00
                  Electrical balance (eq)  =  -3.772e-10
 Percent error, 100*(Cat-|An|)/(Cat+|An|)  =  -0.00
                               Iterations  =   6 (22 overall)
                                  Total H  = 1.110124e+02
                                  Total O  = 5.550622e+01

----------------------------Distribution of species----------------------------

                                               Log       Log       Log    mole V
   Species          Molality    Activity  Molality  Activity     Gamma   cm³/mol

   H+              1.287e-07   1.000e-07    -6.890    -7.000    -0.110      0.00
   OH-             1.023e-07   6.762e-08    -6.990    -7.170    -0.180     -3.42
   H2O             5.551e+01   9.877e-01     1.744    -0.005     0.000     18.05
Cl            3.613e-01
   Cl-             3.613e-01   2.437e-01    -0.442    -0.613    -0.171     18.41
H(0)          1.371e-25
   H2              6.853e-26   7.447e-26   -25.164   -25.128     0.036     28.61
Na            3.613e-01
   Na+             3.613e-01   2.624e-01    -0.442    -0.581    -0.139     -1.01
   NaOH            1.633e-18   1.774e-18   -17.787   -17.751     0.036     (0)  
O(0)          0.000e+00
   O2              0.000e+00   0.000e+00   -43.812   -43.776     0.036     29.98

------------------------------Saturation indices-------------------------------

  Phase               SI** log IAP   log K(293 K,   1 atm)

  H2(g)           -22.04    -25.13   -3.09  H2
  H2O(g)           -1.64     -0.01    1.63  H2O
  Halite           -2.76     -1.19    1.57  NaCl
  O2(g)           -40.92    -43.78   -2.85  O2

**For a gas, SI = log10(fugacity). Fugacity = pressure * phi / 1 atm.
  For ideal gases, phi = 1.

Initial solution 17.	

-----------------------------Solution composition------------------------------

	Elements           Molality       Moles

	Cl                4.553e-01   4.553e-01  Charge balance
	Na                4.553e-01   4.553e-01

----------------------------Description of solution----------------------------

                                       pH  =   7.000    
                                       pe  =   4.000    
      Specific Conductance (µS/cm,  20°C)  = 38169
                          Density (g/cm³)  =   1.01665
                               Volume (L)  =   1.00979
                        Activity of water  =   0.985
                 Ionic strength (mol/kgw)  =   4.553e-01
                       Mass of water (kg)  =   1.000e+00
                 Total alkalinity (eq/kg)  =  -2.510e-08
                         Temperature (°C)  =  20.00
                  Electrical balance (eq)  =  -7.962e-14
 Percent error, 100*(Cat-|An|)/(Cat+|An|)  =  -0.00
                               Iterations  =   7 (29 overall)
                                  Total H  = 1.110124e+02
                                  Total O  = 5.550622e+01

----------------------------Distribution of species----------------------------

                                               Log       Log       Log    mole V
   Species          Molality    Activity  Molality  Activity     Gamma   cm³/mol

   H+              1.301e-07   1.000e-07    -6.886    -7.000    -0.114      0.00
   OH-             1.050e-07   6.740e-08    -6.979    -7.171    -0.192     -3.25
   H2O             5.551e+01   9.845e-01     1.744    -0.007     0.000     18.05
Cl            4.553e-01
   Cl-             4.553e-01   2.997e-01    -0.342    -0.523    -0.182     18.48
H(0)          1.341e-25
   H2              6.706e-26   7.447e-26   -25.174   -25.128     0.046     28.61
Na            4.553e-01
   Na+             4.553e-01   3.283e-01    -0.342    -0.484    -0.142     -0.92
   NaOH            1.992e-18   2.213e-18   -17.701   -17.655     0.046     (0)  
O(0)          0.000e+00
   O2              0.000e+00   0.000e+00   -43.824   -43.779     0.046     29.98

------------------------------Saturation indices-------------------------------

  Phase               SI** log IAP   log K(293 K,   1 atm)

  H2(g)           -22.04    -25.13   -3.09  H2
  H2O(g)           -1.64     -0.01    1.63  H2O
  Halite           -2.57     -1.01    1.57  NaCl
  O2(g)           -40.92    -43.78   -2.85  O2

**For a gas, SI = log10(fugacity). Fugacity = pressure * phi / 1 atm.
  For ideal gases, phi = 1.

Initial solution 18.	

-----------------------------Solution composition------------------------------

	Elements           Molality       Moles

	Cl                5.497e-01   5.497e-01  Charge balance
	Na                5.497e-01   5.497e-01

----------------------------Description of solution----------------------------

                                       pH  =   7.000    
                                       pe  =   4.000    
      Specific Conductance (µS/cm,  20°C)  = 45002
                          Density (g/cm³)  =   1.02036
                               Volume (L)  =   1.01153
                        Activity of water  =   0.981
                 Ionic strength (mol/kgw)  =   5.497e-01
                       Mass of water (kg)  =   1.000e+00
                 Total alkalinity (eq/kg)  =  -2.400e-08
                         Temperature (°C)  =  20.00
                  Electrical balance (eq)  =  -4.090e-10
 Percent error, 100*(Cat-|An|)/(Cat+|An|)  =  -0.00
                               Iterations  =   7 (36 overall)
                                  Total H  = 1.110124e+02
                                  Total O  = 5.550622e+01

----------------------------Distribution of species----------------------------

                                               Log       Log       Log    mole V
   Species          Molality    Activity  Molality  Activity     Gamma   cm³/mol

   H+              1.311e-07   1.000e-07    -6.882    -7.000    -0.118      0.00
   OH-             1.071e-07   6.718e-08    -6.970    -7.173    -0.203     -3.09
   H2O             5.551e+01   9.813e-01     1.744    -0.008     0.000     18.05
Cl            5.497e-01
   Cl-             5.497e-01   3.550e-01    -0.260    -0.450    -0.190     18.53
H(0)          1.312e-25
   H2              6.562e-26   7.447e-26   -25.183   -25.128     0.055     28.61
Na            5.497e-01
   Na+             5.497e-01   3.953e-01    -0.260    -0.403    -0.143     -0.84
   NaOH            2.340e-18   2.655e-18   -17.631   -17.576     0.055     (0)  
O(0)          0.000e+00
   O2              0.000e+00   0.000e+00   -43.836   -43.782     0.055     29.98

------------------------------Saturation indices-------------------------------

  Phase               SI** log IAP   log K(293 K,   1 atm)

  H2(g)           -22.04    -25.13   -3.09  H2
  H2O(g)           -1.64     -0.01    1.63  H2O
  Halite           -2.42     -0.85    1.57  NaCl
  O2(g)           -40.93    -43.78   -2.85  O2

**For a gas, SI = log10(fugacity). Fugacity = pressure * phi / 1 atm.
  For ideal gases, phi = 1.

Initial solution 19.	

-----------------------------Solution composition------------------------------

	Elements           Molality       Moles

	Cl                6.445e-01   6.445e-01  Charge balance
	Na                6.445e-01   6.445e-01

----------------------------Description of solution----------------------------

                                       pH  =   7.000    
                                       pe  =   4.000    
      Specific Conductance (µS/cm,  20°C)  = 51617
                          Density (g/cm³)  =   1.02406
                               Volume (L)  =   1.01329
                        Activity of water  =   0.978
                 Ionic strength (mol/kgw)  =   6.445e-01
                       Mass of water (kg)  =   1.000e+00
                 Total alkalinity (eq/kg)  =  -2.306e-08
                         Temperature (°C)  =  20.00
                  Electrical balance (eq)  =  -1.997e-14
 Percent error, 100*(Cat-|An|)/(Cat+|An|)  =  -0.00
                               Iterations  =   8 (44 overall)
                                  Total H  = 1.110124e+02
                                  Total O  = 5.550622e+01

----------------------------Distribution of species----------------------------

                                               Log       Log       Log    mole V
   Species          Molality    Activity  Molality  Activity     Gamma   cm³/mol

   H+              1.320e-07   1.000e-07    -6.879    -7.000    -0.121      0.00
   OH-             1.089e-07   6.696e-08    -6.963    -7.174    -0.211     -2.93
   H2O             5.551e+01   9.781e-01     1.744    -0.010     0.000     18.05
Cl            6.445e-01
   Cl-             6.445e-01   4.097e-01    -0.191    -0.387    -0.197     18.59
H(0)          1.284e-25
   H2              6.420e-26   7.447e-26   -25.192   -25.128     0.064     28.61
Na            6.445e-01
   Na+             6.445e-01   4.637e-01    -0.191    -0.334    -0.143     -0.77
   NaOH            2.677e-18   3.105e-18   -17.572   -17.508     0.064     (0)  
O(0)          0.000e+00
   O2              0.000e+00   0.000e+00   -43.849   -43.784     0.064     29.98

------------------------------Saturation indices-------------------------------

  Phase               SI** log IAP   log K(293 K,   1 atm)

  H2(g)           -22.04    -25.13   -3.09  H2
  H2O(g)           -1.64     -0.01    1.63  H2O
  Halite           -2.29     -0.72    1.57  NaCl
  O2(g)           -40.93    -43.78   -2.85  O2

**For a gas, SI = log10(fugacity). Fugacity = pressure * phi / 1 atm.
  For ideal gases, phi = 1.

Initial solution 20.	

-----------------------------Solution composition------------------------------

	Elements           Molality       Moles

	Cl                7.214e-01   7.214e-01  Charge balance
	Na                7.214e-01   7.214e-01

----------------------------Description of solution----------------------------

                                       pH  =   7.000    
                                       pe  =   4.000    
      Specific Conductance (µS/cm,  20°C)  = 56816
                          Density (g/cm³)  =   1.02704
                               Volume (L)  =   1.01473
                        Activity of water  =   0.975
                 Ionic strength (mol/kgw)  =   7.214e-01
                       Mass of water (kg)  =   1.000e+00
                 Total alkalinity (eq/kg)  =  -2.239e-08
                         Temperature (°C)  =  20.00
                  Electrical balance (eq)  =  -2.283e-11
 Percent error, 100*(Cat-|An|)/(Cat+|An|)  =  -0.00
                               Iterations  =   8 (52 overall)
                                  Total H  = 1.110124e+02
                                  Total O  = 5.550622e+01

----------------------------Distribution of species----------------------------

                                               Log       Log       Log    mole V
   Species          Molality    Activity  Molality  Activity     Gamma   cm³/mol

   H+              1.326e-07   1.000e-07    -6.877    -7.000    -0.123      0.00
   OH-             1.102e-07   6.678e-08    -6.958    -7.175    -0.218     -2.81
   H2O             5.551e+01   9.755e-01     1.744    -0.011     0.000     18.05
Cl            7.214e-01
   Cl-             7.214e-01   4.537e-01    -0.142    -0.343    -0.201     18.63
H(0)          1.261e-25
   H2              6.307e-26   7.447e-26   -25.200   -25.128     0.072     28.61
Na            7.214e-01
   Na+             7.214e-01   5.202e-01    -0.142    -0.284    -0.142     -0.71
   NaOH            2.942e-18   3.474e-18   -17.531   -17.459     0.072     (0)  
O(0)          0.000e+00
   O2              0.000e+00   0.000e+00   -43.859   -43.787     0.072     29.98

------------------------------Saturation indices-------------------------------

  Phase               SI** log IAP   log K(293 K,   1 atm)

  H2(g)           -22.04    -25.13   -3.09  H2
  H2O(g)           -1.64     -0.01    1.63  H2O
  Halite           -2.19     -0.63    1.57  NaCl
  O2(g)           -40.93    -43.79   -2.85  O2

**For a gas, SI = log10(fugacity). Fugacity = pressure * phi / 1 atm.
  For ideal gases, phi = 1.

Initial solution 21.	

-----------------------------Solution composition------------------------------

	Elements           Molality       Moles

	Cl                9.166e-01   9.166e-01  Charge balance
	Na                9.166e-01   9.166e-01

----------------------------Description of solution----------------------------

                                       pH  =   7.000    
                                       pe  =   4.000    
      Specific Conductance (µS/cm,  20°C)  = 69414
                          Density (g/cm³)  =   1.03451
                               Volume (L)  =   1.01842
                        Activity of water  =   0.969
                 Ionic strength (mol/kgw)  =   9.166e-01
                       Mass of water (kg)  =   1.000e+00
                 Total alkalinity (eq/kg)  =  -2.102e-08
                         Temperature (°C)  =  20.00
                  Electrical balance (eq)  =  -3.417e-12
 Percent error, 100*(Cat-|An|)/(Cat+|An|)  =  -0.00
                               Iterations  =   9 (61 overall)
                                  Total H  = 1.110124e+02
                                  Total O  = 5.550622e+01

----------------------------Distribution of species----------------------------

                                               Log       Log       Log    mole V
   Species          Molality    Activity  Molality  Activity     Gamma   cm³/mol

   H+              1.339e-07   1.000e-07    -6.873    -7.000    -0.127      0.00
   OH-             1.128e-07   6.632e-08    -6.948    -7.178    -0.231     -2.50
   H2O             5.551e+01   9.688e-01     1.744    -0.014     0.000     18.05
Cl            9.166e-01
   Cl-             9.166e-01   5.641e-01    -0.038    -0.249    -0.211     18.72
H(0)          1.206e-25
   H2              6.030e-26   7.447e-26   -25.220   -25.128     0.092     28.61
Na            9.166e-01
   Na+             9.166e-01   6.683e-01    -0.038    -0.175    -0.137     -0.58
   NaOH            3.589e-18   4.432e-18   -17.445   -17.353     0.092     (0)  
O(0)          0.000e+00
   O2              0.000e+00   0.000e+00   -43.884   -43.793     0.092     29.98

------------------------------Saturation indices-------------------------------

  Phase               SI** log IAP   log K(293 K,   1 atm)

  H2(g)           -22.04    -25.13   -3.09  H2
  H2O(g)           -1.65     -0.01    1.63  H2O
  Halite           -1.99     -0.42    1.57  NaCl
  O2(g)           -40.94    -43.79   -2.85  O2

**For a gas, SI = log10(fugacity). Fugacity = pressure * phi / 1 atm.
  For ideal gases, phi = 1.

Initial solution 22.	

-----------------------------Solution composition------------------------------

	Elements           Molality       Moles

	Cl                1.097e+00   1.097e+00  Charge balance
	Na                1.097e+00   1.097e+00

----------------------------Description of solution----------------------------

                                       pH  =   7.000    
                                       pe  =   4.000    
      Specific Conductance (µS/cm,  20°C)  = 80353
                          Density (g/cm³)  =   1.04130
                               Volume (L)  =   1.02189
                        Activity of water  =   0.963
                 Ionic strength (mol/kgw)  =   1.097e+00
                       Mass of water (kg)  =   1.000e+00
                 Total alkalinity (eq/kg)  =  -2.006e-08
                         Temperature (°C)  =  20.00
                  Electrical balance (eq)  =  -1.147e-12
 Percent error, 100*(Cat-|An|)/(Cat+|An|)  =  -0.00
                               Iterations  =   9 (70 overall)
                                  Total H  = 1.110124e+02
                                  Total O  = 5.550622e+01

----------------------------Distribution of species----------------------------

                                               Log       Log       Log    mole V
   Species          Molality    Activity  Molality  Activity     Gamma   cm³/mol

   H+              1.348e-07   1.000e-07    -6.870    -7.000    -0.130      0.00
   OH-             1.147e-07   6.590e-08    -6.940    -7.181    -0.241     -2.22
   H2O             5.551e+01   9.627e-01     1.744    -0.017     0.000     18.05
Cl            1.097e+00
   Cl-             1.097e+00   6.651e-01     0.040    -0.177    -0.217     18.80
H(0)          1.157e-25
   H2              5.785e-26   7.447e-26   -25.238   -25.128     0.110     28.61
Na            1.097e+00
   Na+             1.097e+00   8.116e-01     0.040    -0.091    -0.131     -0.48
   NaOH            4.155e-18   5.349e-18   -17.381   -17.272     0.110     (0)  
O(0)          0.000e+00
   O2              0.000e+00   0.000e+00   -43.908   -43.798     0.110     29.98

------------------------------Saturation indices-------------------------------

  Phase               SI** log IAP   log K(293 K,   1 atm)

  H2(g)           -22.04    -25.13   -3.09  H2
  H2O(g)           -1.65     -0.02    1.63  H2O
  Halite           -1.83     -0.27    1.57  NaCl
  O2(g)           -40.94    -43.80   -2.85  O2

**For a gas, SI = log10(fugacity). Fugacity = pressure * phi / 1 atm.
  For ideal gases, phi = 1.

Initial solution 23.	

-----------------------------Solution composition------------------------------

	Elements           Molality       Moles

	Cl                1.467e+00   1.467e+00  Charge balance
	Na                1.467e+00   1.467e+00

----------------------------Description of solution----------------------------

                                       pH  =   7.000    
                                       pe  =   4.000    
      Specific Conductance (µS/cm,  20°C)  = 101064
                          Density (g/cm³)  =   1.05498
                               Volume (L)  =   1.02916
                        Activity of water  =   0.950
                 Ionic strength (mol/kgw)  =   1.467e+00
                       Mass of water (kg)  =   1.000e+00
                 Total alkalinity (eq/kg)  =  -1.876e-08
                         Temperature (°C)  =  20.00
                  Electrical balance (eq)  =  -4.107e-15
 Percent error, 100*(Cat-|An|)/(Cat+|An|)  =  -0.00
                               Iterations  =   9 (79 overall)
                                  Total H  = 1.110124e+02
                                  Total O  = 5.550622e+01

----------------------------Distribution of species----------------------------

                                               Log       Log       Log    mole V
   Species          Molality    Activity  Molality  Activity     Gamma   cm³/mol

   H+              1.361e-07   1.000e-07    -6.866    -7.000    -0.134      0.00
   OH-             1.174e-07   6.504e-08    -6.930    -7.187    -0.256     -1.67
   H2O             5.551e+01   9.501e-01     1.744    -0.022     0.000     18.05
Cl            1.467e+00
   Cl-             1.467e+00   8.718e-01     0.166    -0.060    -0.226     18.94
H(0)          1.062e-25
   H2              5.312e-26   7.447e-26   -25.275   -25.128     0.147     28.61
Na            1.467e+00
   Na+             1.467e+00   1.130e+00     0.166     0.053    -0.114     -0.29
   NaOH            5.241e-18   7.347e-18   -17.281   -17.134     0.147     (0)  
O(0)          0.000e+00
   O2              0.000e+00   0.000e+00   -43.956   -43.810     0.147     29.98

------------------------------Saturation indices-------------------------------

  Phase               SI** log IAP   log K(293 K,   1 atm)

  H2(g)           -22.04    -25.13   -3.09  H2
  H2O(g)           -1.66     -0.02    1.63  H2O
  Halite           -1.57     -0.01    1.57  NaCl
  O2(g)           -40.96    -43.81   -2.85  O2

**For a gas, SI = log10(fugacity). Fugacity = pressure * phi / 1 atm.
  For ideal gases, phi = 1.

Initial solution 24.	

-----------------------------Solution composition------------------------------

	Elements           Molality       Moles

	Cl                1.811e+00   1.811e+00  Charge balance
	Na                1.811e+00   1.811e+00

----------------------------Description of solution----------------------------

                                       pH  =   7.000    
                                       pe  =   4.000    
      Specific Conductance (µS/cm,  20°C)  = 118453
                          Density (g/cm³)  =   1.06735
                               Volume (L)  =   1.03606
                        Activity of water  =   0.938
                 Ionic strength (mol/kgw)  =   1.811e+00
                       Mass of water (kg)  =   1.000e+00
                 Total alkalinity (eq/kg)  =  -1.812e-08
                         Temperature (°C)  =  20.00
                  Electrical balance (eq)  =  -1.043e-08
 Percent error, 100*(Cat-|An|)/(Cat+|An|)  =  -0.00
                               Iterations  =   8 (87 overall)
                                  Total H  = 1.110124e+02
                                  Total O  = 5.550622e+01

----------------------------Distribution of species----------------------------

                                               Log       Log       Log    mole V
   Species          Molality    Activity  Molality  Activity     Gamma   cm³/mol

   H+              1.371e-07   1.000e-07    -6.863    -7.000    -0.137      0.00
   OH-             1.190e-07   6.424e-08    -6.925    -7.192    -0.268     -1.17
   H2O             5.551e+01   9.384e-01     1.744    -0.028     0.000     18.05
Cl            1.811e+00
   Cl-             1.811e+00   1.064e+00     0.258     0.027    -0.231     19.05
H(0)          9.816e-26
   H2              4.908e-26   7.447e-26   -25.309   -25.128     0.181     28.61
Na            1.811e+00
   Na+             1.811e+00   1.456e+00     0.258     0.163    -0.095     -0.13
   NaOH            6.166e-18   9.356e-18   -17.210   -17.029     0.181     (0)  
O(0)          0.000e+00
   O2              0.000e+00   0.000e+00   -44.001   -43.820     0.181     29.98

------------------------------Saturation indices-------------------------------

  Phase               SI** log IAP   log K(293 K,   1 atm)

  H2(g)           -22.04    -25.13   -3.09  H2
  H2O(g)           -1.66     -0.03    1.63  H2O
  Halite           -1.38      0.19    1.57  NaCl
  O2(g)           -40.97    -43.82   -2.85  O2

**For a gas, SI = log10(fugacity). Fugacity = pressure * phi / 1 atm.
  For ideal gases, phi = 1.

------------------
End of simulation.
------------------

------------------------------------
Reading input data for simulation 3.
------------------------------------

	SOLUTION_SPREAD
	 temp 20
	 units mol/L
	Ca	Cl#     HB_SC
	4.50E-02	1 charge #     8100
	9.10E-02	1 charge #     15700
	1.37E-01	1 charge #     22700
	1.83E-01	1 charge #     29400
	2.30E-01	1 charge #     36100
	2.77E-01	1 charge #     42600
	3.24E-01	1 charge #     48900
	3.72E-01	1 charge #     55100
	4.69E-01	1 charge #     67000
	5.67E-01	1 charge #     78300
	6.67E-01	1 charge #     88700
	8.20E-01	1 charge #     103000
	USER_GRAPH
	  -headings CaCl2
	  10 DATA 8100, 15700, 22700, 29400, 36100, 42600, 48900, 55100, 67000, 78300, 88700, 103000
	  20 dim HB(12)
	  30 for i = 1 to 12
	  40   READ HB(i)
	  50 next i
	  60 plot_xy HB(cell_no - 24) / 1e3, SC / 1e3, line_width = 0
	END
-------------------------------------------
Beginning of initial solution calculations.
-------------------------------------------

Initial solution 25.	

-----------------------------Solution composition------------------------------

	Elements           Molality       Moles

	Ca                4.674e-02   4.674e-02
	Cl                9.348e-02   9.348e-02  Charge balance

----------------------------Description of solution----------------------------

                                       pH  =   7.000    
                                       pe  =   4.000    
      Specific Conductance (µS/cm,  20°C)  = 8780
                          Density (g/cm³)  =   1.00249
                               Volume (L)  =   1.00269
                        Activity of water  =   0.998
                 Ionic strength (mol/kgw)  =   1.402e-01
                       Mass of water (kg)  =   1.000e+00
                 Total alkalinity (eq/kg)  =   5.837e-09
                         Temperature (°C)  =  20.00
                  Electrical balance (eq)  =  -4.036e-12
 Percent error, 100*(Cat-|An|)/(Cat+|An|)  =  -0.00
                               Iterations  =   5
                                  Total H  = 1.110124e+02
                                  Total O  = 5.550622e+01

----------------------------Distribution of species----------------------------

                                               Log       Log       Log    mole V
   Species          Molality    Activity  Molality  Activity     Gamma   cm³/mol

   H+              1.230e-07   1.000e-07    -6.910    -7.000    -0.090      0.00
   OH-             9.265e-08   6.829e-08    -7.033    -7.166    -0.132     -3.87
   H2O             5.551e+01   9.976e-01     1.744    -0.001     0.000     18.05
Ca            4.674e-02
   Ca+2            4.674e-02   1.672e-02    -1.330    -1.777    -0.446    -17.43
   CaOH+           3.621e-08   2.769e-08    -7.441    -7.558    -0.117     (0)  
Cl            9.348e-02
   Cl-             9.348e-02   6.952e-02    -1.029    -1.158    -0.129     18.21
H(0)          1.442e-25
   H2              7.211e-26   7.447e-26   -25.142   -25.128     0.014     28.61
O(0)          0.000e+00
   O2              0.000e+00   0.000e+00   -43.781   -43.767     0.014     29.98

------------------------------Saturation indices-------------------------------

  Phase               SI** log IAP   log K(293 K,   1 atm)

  H2(g)           -22.04    -25.13   -3.09  H2
  H2O(g)           -1.63     -0.00    1.63  H2O
  O2(g)           -40.91    -43.77   -2.85  O2

**For a gas, SI = log10(fugacity). Fugacity = pressure * phi / 1 atm.
  For ideal gases, phi = 1.

Initial solution 26.	

-----------------------------Solution composition------------------------------

	Elements           Molality       Moles

	Ca                9.470e-02   9.470e-02
	Cl                1.894e-01   1.894e-01  Charge balance

----------------------------Description of solution----------------------------

                                       pH  =   7.000    
                                       pe  =   4.000    
      Specific Conductance (µS/cm,  20°C)  = 16742
                          Density (g/cm³)  =   1.00684
                               Volume (L)  =   1.00365
                        Activity of water  =   0.995
                 Ionic strength (mol/kgw)  =   2.841e-01
                       Mass of water (kg)  =   1.000e+00
                 Total alkalinity (eq/kg)  =   3.569e-08
                         Temperature (°C)  =  20.00
                  Electrical balance (eq)  =  -2.137e-12
 Percent error, 100*(Cat-|An|)/(Cat+|An|)  =  -0.00
                               Iterations  =   5 (10 overall)
                                  Total H  = 1.110124e+02
                                  Total O  = 5.550622e+01

----------------------------Distribution of species----------------------------

                                               Log       Log       Log    mole V
   Species          Molality    Activity  Molality  Activity     Gamma   cm³/mol

   H+              1.273e-07   1.000e-07    -6.895    -7.000    -0.105      0.00
   OH-             1.001e-07   6.813e-08    -6.999    -7.167    -0.167     -3.57
   H2O             5.551e+01   9.952e-01     1.744    -0.002     0.000     18.05
Ca            9.470e-02
   Ca+2            9.470e-02   2.803e-02    -1.024    -1.552    -0.529    -17.20
   CaOH+           6.285e-08   4.629e-08    -7.202    -7.334    -0.133     (0)  
Cl            1.894e-01
   Cl-             1.894e-01   1.310e-01    -0.723    -0.883    -0.160     18.35
H(0)          1.395e-25
   H2              6.976e-26   7.447e-26   -25.156   -25.128     0.028     28.61
O(0)          0.000e+00
   O2              0.000e+00   0.000e+00   -43.798   -43.769     0.028     29.98

------------------------------Saturation indices-------------------------------

  Phase               SI** log IAP   log K(293 K,   1 atm)

  H2(g)           -22.04    -25.13   -3.09  H2
  H2O(g)           -1.64     -0.00    1.63  H2O
  O2(g)           -40.91    -43.77   -2.85  O2

**For a gas, SI = log10(fugacity). Fugacity = pressure * phi / 1 atm.
  For ideal gases, phi = 1.

Initial solution 27.	

-----------------------------Solution composition------------------------------

	Elements           Molality       Moles

	Ca                1.428e-01   1.428e-01
	Cl                2.857e-01   2.857e-01  Charge balance

----------------------------Description of solution----------------------------

                                       pH  =   7.000    
                                       pe  =   4.000    
      Specific Conductance (µS/cm,  20°C)  = 24121
                          Density (g/cm³)  =   1.01116
                               Volume (L)  =   1.00464
                        Activity of water  =   0.993
                 Ionic strength (mol/kgw)  =   4.285e-01
                       Mass of water (kg)  =   1.000e+00
                 Total alkalinity (eq/kg)  =   6.213e-08
                         Temperature (°C)  =  20.00
                  Electrical balance (eq)  =  -1.215e-14
 Percent error, 100*(Cat-|An|)/(Cat+|An|)  =  -0.00
                               Iterations  =   6 (16 overall)
                                  Total H  = 1.110124e+02
                                  Total O  = 5.550622e+01

----------------------------Distribution of species----------------------------

                                               Log       Log       Log    mole V
   Species          Molality    Activity  Molality  Activity     Gamma   cm³/mol

   H+              1.297e-07   1.000e-07    -6.887    -7.000    -0.113      0.00
   OH-             1.050e-07   6.796e-08    -6.979    -7.168    -0.189     -3.30
   H2O             5.551e+01   9.927e-01     1.744    -0.003     0.000     18.05
Ca            1.428e-01
   Ca+2            1.428e-01   3.860e-02    -0.845    -1.413    -0.568    -17.04
   CaOH+           8.680e-08   6.360e-08    -7.061    -7.197    -0.135     (0)  
Cl            2.857e-01
   Cl-             2.857e-01   1.893e-01    -0.544    -0.723    -0.179     18.46
H(0)          1.349e-25
   H2              6.747e-26   7.447e-26   -25.171   -25.128     0.043     28.61
O(0)          0.000e+00
   O2              0.000e+00   0.000e+00   -43.814   -43.771     0.043     29.98

------------------------------Saturation indices-------------------------------

  Phase               SI** log IAP   log K(293 K,   1 atm)

  H2(g)           -22.04    -25.13   -3.09  H2
  H2O(g)           -1.64     -0.00    1.63  H2O
  O2(g)           -40.92    -43.77   -2.85  O2

**For a gas, SI = log10(fugacity). Fugacity = pressure * phi / 1 atm.
  For ideal gases, phi = 1.

Initial solution 28.	

-----------------------------Solution composition------------------------------

	Elements           Molality       Moles

	Ca                1.912e-01   1.912e-01
	Cl                3.824e-01   3.824e-01  Charge balance

----------------------------Description of solution----------------------------

                                       pH  =   7.000    
                                       pe  =   4.000    
      Specific Conductance (µS/cm,  20°C)  = 31040
                          Density (g/cm³)  =   1.01547
                               Volume (L)  =   1.00566
                        Activity of water  =   0.990
                 Ionic strength (mol/kgw)  =   5.735e-01
                       Mass of water (kg)  =   1.000e+00
                 Total alkalinity (eq/kg)  =   8.673e-08
                         Temperature (°C)  =  20.00
                  Electrical balance (eq)  =  -5.103e-10
 Percent error, 100*(Cat-|An|)/(Cat+|An|)  =  -0.00
                               Iterations  =   6 (22 overall)
                                  Total H  = 1.110124e+02
                                  Total O  = 5.550622e+01

----------------------------Distribution of species----------------------------

                                               Log       Log       Log    mole V
   Species          Molality    Activity  Molality  Activity     Gamma   cm³/mol

   H+              1.314e-07   1.000e-07    -6.882    -7.000    -0.118      0.00
   OH-             1.087e-07   6.779e-08    -6.964    -7.169    -0.205     -3.05
   H2O             5.551e+01   9.902e-01     1.744    -0.004     0.000     18.05
Ca            1.912e-01
   Ca+2            1.912e-01   4.925e-02    -0.719    -1.308    -0.589    -16.91
   CaOH+           1.094e-07   8.093e-08    -6.961    -7.092    -0.131     (0)  
Cl            3.824e-01
   Cl-             3.824e-01   2.459e-01    -0.418    -0.609    -0.192     18.55
H(0)          1.305e-25
   H2              6.526e-26   7.447e-26   -25.185   -25.128     0.057     28.61
O(0)          0.000e+00
   O2              0.000e+00   0.000e+00   -43.831   -43.774     0.057     29.98

------------------------------Saturation indices-------------------------------

  Phase               SI** log IAP   log K(293 K,   1 atm)

  H2(g)           -22.04    -25.13   -3.09  H2
  H2O(g)           -1.64     -0.00    1.63  H2O
  O2(g)           -40.92    -43.77   -2.85  O2

**For a gas, SI = log10(fugacity). Fugacity = pressure * phi / 1 atm.
  For ideal gases, phi = 1.

Initial solution 29.	

-----------------------------Solution composition------------------------------

	Elements           Molality       Moles

	Ca                2.408e-01   2.408e-01
	Cl                4.815e-01   4.815e-01  Charge balance

----------------------------Description of solution----------------------------

                                       pH  =   7.000    
                                       pe  =   4.000    
      Specific Conductance (µS/cm,  20°C)  = 37704
                          Density (g/cm³)  =   1.01986
                               Volume (L)  =   1.00673
                        Activity of water  =   0.988
                 Ionic strength (mol/kgw)  =   7.223e-01
                       Mass of water (kg)  =   1.000e+00
                 Total alkalinity (eq/kg)  =   1.107e-07
                         Temperature (°C)  =  20.00
                  Electrical balance (eq)  =  -1.379e-13
 Percent error, 100*(Cat-|An|)/(Cat+|An|)  =  -0.00
                               Iterations  =   7 (29 overall)
                                  Total H  = 1.110124e+02
                                  Total O  = 5.550622e+01

----------------------------Distribution of species----------------------------

                                               Log       Log       Log    mole V
   Species          Molality    Activity  Molality  Activity     Gamma   cm³/mol

   H+              1.326e-07   1.000e-07    -6.877    -7.000    -0.123      0.00
   OH-             1.116e-07   6.762e-08    -6.952    -7.170    -0.218     -2.81
   H2O             5.551e+01   9.877e-01     1.744    -0.005     0.000     18.05
Ca            2.408e-01
   Ca+2            2.408e-01   6.055e-02    -0.618    -1.218    -0.599    -16.80
   CaOH+           1.317e-07   9.926e-08    -6.880    -7.003    -0.123     (0)  
Cl            4.815e-01
   Cl-             4.815e-01   3.028e-01    -0.317    -0.519    -0.201     18.63
H(0)          1.261e-25
   H2              6.306e-26   7.447e-26   -25.200   -25.128     0.072     28.61
O(0)          0.000e+00
   O2              0.000e+00   0.000e+00   -43.848   -43.776     0.072     29.98

------------------------------Saturation indices-------------------------------

  Phase               SI** log IAP   log K(293 K,   1 atm)

  H2(g)           -22.04    -25.13   -3.09  H2
  H2O(g)           -1.64     -0.01    1.63  H2O
  O2(g)           -40.92    -43.78   -2.85  O2

**For a gas, SI = log10(fugacity). Fugacity = pressure * phi / 1 atm.
  For ideal gases, phi = 1.

Initial solution 30.	

-----------------------------Solution composition------------------------------

	Elements           Molality       Moles

	Ca                2.905e-01   2.905e-01
	Cl                5.811e-01   5.811e-01  Charge balance

----------------------------Description of solution----------------------------

                                       pH  =   7.000    
                                       pe  =   4.000    
      Specific Conductance (µS/cm,  20°C)  = 44007
                          Density (g/cm³)  =   1.02424
                               Volume (L)  =   1.00781
                        Activity of water  =   0.985
                 Ionic strength (mol/kgw)  =   8.716e-01
                       Mass of water (kg)  =   1.000e+00
                 Total alkalinity (eq/kg)  =   1.338e-07
                         Temperature (°C)  =  20.00
                  Electrical balance (eq)  =  -6.996e-10
 Percent error, 100*(Cat-|An|)/(Cat+|An|)  =  -0.00
                               Iterations  =   7 (36 overall)
                                  Total H  = 1.110124e+02
                                  Total O  = 5.550622e+01

----------------------------Distribution of species----------------------------

                                               Log       Log       Log    mole V
   Species          Molality    Activity  Molality  Activity     Gamma   cm³/mol

   H+              1.336e-07   1.000e-07    -6.874    -7.000    -0.126      0.00
   OH-             1.140e-07   6.744e-08    -6.943    -7.171    -0.228     -2.57
   H2O             5.551e+01   9.852e-01     1.744    -0.006     0.000     18.05
Ca            2.905e-01
   Ca+2            2.905e-01   7.251e-02    -0.537    -1.140    -0.603    -16.70
   CaOH+           1.534e-07   1.186e-07    -6.814    -6.926    -0.112     (0)  
Cl            5.811e-01
   Cl-             5.811e-01   3.592e-01    -0.236    -0.445    -0.209     18.70
H(0)          1.219e-25
   H2              6.093e-26   7.447e-26   -25.215   -25.128     0.087     28.61
O(0)          0.000e+00
   O2              0.000e+00   0.000e+00   -43.865   -43.778     0.087     29.98

------------------------------Saturation indices-------------------------------

  Phase               SI** log IAP   log K(293 K,   1 atm)

  H2(g)           -22.04    -25.13   -3.09  H2
  H2O(g)           -1.64     -0.01    1.63  H2O
  O2(g)           -40.92    -43.78   -2.85  O2

**For a gas, SI = log10(fugacity). Fugacity = pressure * phi / 1 atm.
[...]

	                 Relative
	Reactant            moles

	La(NO3)3             1.00000

	                 Relative
	Element             moles
	La                   1.00000
	N                    3.00000
	O                    9.00000

-----------------------------Solution composition------------------------------

	Elements           Molality       Moles

	La                1.268e-01   1.268e-01
	N                 3.804e-01   3.804e-01

----------------------------Description of solution----------------------------

                                       pH  =   7.179      Charge balance
                                       pe  =  13.072      Adjusted to redox equilibrium
      Specific Conductance (µS/cm,  20°C)  = 26855
                          Density (g/cm³)  =   1.03933
                               Volume (L)  =   1.00180
                        Activity of water  =   0.991
                 Ionic strength (mol/kgw)  =   7.608e-01
                       Mass of water (kg)  =   1.000e+00
                 Total alkalinity (eq/kg)  =   8.202e-08
                         Temperature (°C)  =  20.00
                  Electrical balance (eq)  =   3.156e-08
 Percent error, 100*(Cat-|An|)/(Cat+|An|)  =   0.00
                               Iterations  =  24
                                  Total H  = 1.110124e+02
                                  Total O  = 5.664742e+01

----------------------------Distribution of species----------------------------

                                               Log       Log       Log    mole V
   Species          Molality    Activity  Molality  Activity     Gamma   cm³/mol

   OH-             1.701e-07   1.024e-07    -6.769    -6.990    -0.221     -2.74
   H+              8.809e-08   6.629e-08    -7.055    -7.179    -0.123      0.00
   H2O             5.551e+01   9.914e-01     1.744    -0.004     0.000     18.05
H(0)          0.000e+00
   H2              0.000e+00   0.000e+00   -43.705   -43.628     0.076     28.61
La            1.268e-01
   La+3            1.268e-01   9.812e-03    -0.897    -2.008    -1.111     (0)  
N(-3)         0.000e+00
   NH4+            0.000e+00   0.000e+00   -55.332   -55.589    -0.257     18.31
   NH3             0.000e+00   0.000e+00   -57.887   -57.811     0.076     24.19
N(0)          1.137e-07
   N2              5.684e-08   6.773e-08    -7.245    -7.169     0.076     29.29
N(3)          1.587e-12
   NO2-            1.587e-12   9.186e-13   -11.799   -12.037    -0.237     25.44
N(5)          3.804e-01
   NO3-            3.804e-01   2.202e-01    -0.420    -0.657    -0.237     (0)  
O(0)          2.840e-07
   O2              1.420e-07   1.692e-07    -6.848    -6.772     0.076     29.98

------------------------------Saturation indices-------------------------------

  Phase               SI** log IAP   log K(293 K,   1 atm)

  H2(g)           -40.54    -43.63   -3.09  H2
  H2O(g)           -1.64     -0.00    1.63  H2O
  N2(g)            -4.03     -7.17   -3.14  N2
  NH3(g)          -59.71    -57.81    1.90  NH3
  O2(g)            -3.92     -6.77   -2.85  O2

**For a gas, SI = log10(fugacity). Fugacity = pressure * phi / 1 atm.
  For ideal gases, phi = 1.

Reaction step 5.

Using solution 1.	
Using reaction 1.	

Reaction 1.	

	  1.600e-01 moles of the following reaction have been added:

	                 Relative
	Reactant            moles

	La(NO3)3             1.00000

	                 Relative
	Element             moles
	La                   1.00000
	N                    3.00000
	O                    9.00000

-----------------------------Solution composition------------------------------

	Elements           Molality       Moles

	La                1.600e-01   1.600e-01
	N                 4.800e-01   4.800e-01

----------------------------Description of solution----------------------------

                                       pH  =   7.184      Charge balance
                                       pe  =  13.078      Adjusted to redox equilibrium
      Specific Conductance (µS/cm,  20°C)  = 31888
                          Density (g/cm³)  =   1.05010
                               Volume (L)  =   1.00180
                        Activity of water  =   0.989
                 Ionic strength (mol/kgw)  =   9.600e-01
                       Mass of water (kg)  =   1.000e+00
                 Total alkalinity (eq/kg)  =   8.913e-08
                         Temperature (°C)  =  20.00
                  Electrical balance (eq)  =   3.156e-08
 Percent error, 100*(Cat-|An|)/(Cat+|An|)  =   0.00
                               Iterations  =  24
                                  Total H  = 1.110124e+02
                                  Total O  = 5.694622e+01

----------------------------Distribution of species----------------------------

                                               Log       Log       Log    mole V
   Species          Molality    Activity  Molality  Activity     Gamma   cm³/mol

   OH-             1.769e-07   1.034e-07    -6.752    -6.985    -0.233     -2.43
   H+              8.781e-08   6.549e-08    -7.056    -7.184    -0.127      0.00
   H2O             5.551e+01   9.891e-01     1.744    -0.005     0.000     18.05
H(0)          0.000e+00
   H2              0.000e+00   0.000e+00   -43.749   -43.653     0.096     28.61
La            1.600e-01
   La+3            1.600e-01   1.142e-02    -0.796    -1.942    -1.147     (0)  
N(-3)         0.000e+00
   NH4+            0.000e+00   0.000e+00   -55.333   -55.608    -0.275     18.37
   NH3             0.000e+00   0.000e+00   -57.920   -57.824     0.096     24.19
N(0)          1.209e-07
   N2              6.047e-08   7.542e-08    -7.218    -7.122     0.096     29.29
N(3)          1.899e-12
   NO2-            1.899e-12   1.062e-12   -11.722   -11.974    -0.252     25.54
N(5)          4.800e-01
   NO3-            4.800e-01   2.684e-01    -0.319    -0.571    -0.252     (0)  
O(0)          3.018e-07
   O2              1.509e-07   1.882e-07    -6.821    -6.725     0.096     29.98

------------------------------Saturation indices-------------------------------

  Phase               SI** log IAP   log K(293 K,   1 atm)

  H2(g)           -40.56    -43.65   -3.09  H2
  H2O(g)           -1.64     -0.00    1.63  H2O
  N2(g)            -3.98     -7.12   -3.14  N2
  NH3(g)          -59.73    -57.82    1.90  NH3
  O2(g)            -3.87     -6.73   -2.85  O2

**For a gas, SI = log10(fugacity). Fugacity = pressure * phi / 1 atm.
  For ideal gases, phi = 1.

Reaction step 6.

Using solution 1.	
Using reaction 1.	

Reaction 1.	

	  1.936e-01 moles of the following reaction have been added:

	                 Relative
	Reactant            moles

	La(NO3)3             1.00000

	                 Relative
	Element             moles
	La                   1.00000
	N                    3.00000
	O                    9.00000

-----------------------------Solution composition------------------------------

	Elements           Molality       Moles

	La                1.936e-01   1.936e-01
	N                 5.808e-01   5.808e-01

----------------------------Description of solution----------------------------

                                       pH  =   7.187      Charge balance
                                       pe  =  13.085      Adjusted to redox equilibrium
      Specific Conductance (µS/cm,  20°C)  = 36466
                          Density (g/cm³)  =   1.06100
                               Volume (L)  =   1.00180
                        Activity of water  =   0.987
                 Ionic strength (mol/kgw)  =   1.162e+00
                       Mass of water (kg)  =   1.000e+00
                 Total alkalinity (eq/kg)  =   9.436e-08
                         Temperature (°C)  =  20.00
                  Electrical balance (eq)  =   3.155e-08
 Percent error, 100*(Cat-|An|)/(Cat+|An|)  =   0.00
                               Iterations  =  24
                                  Total H  = 1.110124e+02
                                  Total O  = 5.724862e+01

----------------------------Distribution of species----------------------------

                                               Log       Log       Log    mole V
   Species          Molality    Activity  Molality  Activity     Gamma   cm³/mol

   OH-             1.821e-07   1.039e-07    -6.740    -6.983    -0.244     -2.12
   H+              8.779e-08   6.501e-08    -7.057    -7.187    -0.130      0.00
   H2O             5.551e+01   9.868e-01     1.744    -0.006     0.000     18.05
H(0)          0.000e+00
   H2              0.000e+00   0.000e+00   -43.789   -43.673     0.116     28.61
La            1.936e-01
   La+3            1.936e-01   1.297e-02    -0.713    -1.887    -1.174     (0)  
N(-3)         0.000e+00
   NH4+            0.000e+00   0.000e+00   -55.332   -55.622    -0.289     18.43
   NH3             0.000e+00   0.000e+00   -57.951   -57.835     0.116     24.19
N(0)          1.264e-07
   N2              6.318e-08   8.256e-08    -7.199    -7.083     0.116     29.29
N(3)          2.197e-12
   NO2-            2.197e-12   1.195e-12   -11.658   -11.923    -0.265     25.63
N(5)          5.808e-01
   NO3-            5.808e-01   3.158e-01    -0.236    -0.501    -0.265     (0)  
O(0)          3.149e-07
   O2              1.574e-07   2.057e-07    -6.803    -6.687     0.116     29.98

------------------------------Saturation indices-------------------------------

  Phase               SI** log IAP   log K(293 K,   1 atm)

  H2(g)           -40.58    -43.67   -3.09  H2
  H2O(g)           -1.64     -0.01    1.63  H2O
  N2(g)            -3.94     -7.08   -3.14  N2
  NH3(g)          -59.74    -57.83    1.90  NH3
  O2(g)            -3.83     -6.69   -2.85  O2

**For a gas, SI = log10(fugacity). Fugacity = pressure * phi / 1 atm.
  For ideal gases, phi = 1.

Reaction step 7.

Using solution 1.	
Using reaction 1.	

Reaction 1.	

	  2.277e-01 moles of the following reaction have been added:

	                 Relative
	Reactant            moles

	La(NO3)3             1.00000

	                 Relative
	Element             moles
	La                   1.00000
	N                    3.00000
	O                    9.00000

-----------------------------Solution composition------------------------------

	Elements           Molality       Moles

	La                2.277e-01   2.277e-01
	N                 6.831e-01   6.831e-01

----------------------------Description of solution----------------------------

                                       pH  =   7.188      Charge balance
                                       pe  =  13.093      Adjusted to redox equilibrium
      Specific Conductance (µS/cm,  20°C)  = 40657
                          Density (g/cm³)  =   1.07206
                               Volume (L)  =   1.00180
                        Activity of water  =   0.985
                 Ionic strength (mol/kgw)  =   1.366e+00
                       Mass of water (kg)  =   1.000e+00
                 Total alkalinity (eq/kg)  =   9.746e-08
                         Temperature (°C)  =  20.00
                  Electrical balance (eq)  =   3.151e-08
 Percent error, 100*(Cat-|An|)/(Cat+|An|)  =   0.00
                               Iterations  =  14
                                  Total H  = 1.110124e+02
                                  Total O  = 5.755552e+01

----------------------------Distribution of species----------------------------

                                               Log       Log       Log    mole V
   Species          Molality    Activity  Molality  Activity     Gamma   cm³/mol

   OH-             1.857e-07   1.038e-07    -6.731    -6.984    -0.253     -1.82
   H+              8.819e-08   6.494e-08    -7.055    -7.188    -0.133      0.00
   H2O             5.551e+01   9.845e-01     1.744    -0.007     0.000     18.05
H(0)          0.000e+00
   H2              0.000e+00   0.000e+00   -43.826   -43.690     0.137     28.61
La            2.277e-01
   La+3            2.277e-01   1.449e-02    -0.643    -1.839    -1.196     (0)  
N(-3)         0.000e+00
   NH4+            0.000e+00   0.000e+00   -55.325   -55.627    -0.302     18.48
   NH3             0.000e+00   0.000e+00   -57.976   -57.839     0.137     24.19
N(0)          1.326e-07
   N2              6.628e-08   9.078e-08    -7.179    -7.042     0.137     29.29
N(3)          2.492e-12
   NO2-            2.492e-12   1.323e-12   -11.603   -11.878    -0.275     25.71
N(5)          6.831e-01
   NO3-            6.831e-01   3.626e-01    -0.166    -0.441    -0.275     (0)  
O(0)          3.230e-07
   O2              1.615e-07   2.212e-07    -6.792    -6.655     0.137     29.98

------------------------------Saturation indices-------------------------------

  Phase               SI** log IAP   log K(293 K,   1 atm)

  H2(g)           -40.60    -43.69   -3.09  H2
  H2O(g)           -1.64     -0.01    1.63  H2O
  N2(g)            -3.90     -7.04   -3.14  N2
  NH3(g)          -59.74    -57.84    1.90  NH3
  O2(g)            -3.80     -6.66   -2.85  O2

**For a gas, SI = log10(fugacity). Fugacity = pressure * phi / 1 atm.
  For ideal gases, phi = 1.

Reaction step 8.

Using solution 1.	
Using reaction 1.	

Reaction 1.	

	  2.625e-01 moles of the following reaction have been added:

	                 Relative
	Reactant            moles

	La(NO3)3             1.00000

	                 Relative
	Element             moles
	La                   1.00000
	N                    3.00000
	O                    9.00000

-----------------------------Solution composition------------------------------

	Elements           Molality       Moles

	La                2.625e-01   2.625e-01
	N                 7.875e-01   7.875e-01

----------------------------Description of solution----------------------------

                                       pH  =   7.187      Charge balance
                                       pe  =  13.101      Adjusted to redox equilibrium
      Specific Conductance (µS/cm,  20°C)  = 44522
                          Density (g/cm³)  =   1.08334
                               Volume (L)  =   1.00180
                        Activity of water  =   0.982
                 Ionic strength (mol/kgw)  =   1.575e+00
                       Mass of water (kg)  =   1.000e+00
                 Total alkalinity (eq/kg)  =   9.961e-08
                         Temperature (°C)  =  20.00
                  Electrical balance (eq)  =   3.148e-08
 Percent error, 100*(Cat-|An|)/(Cat+|An|)  =   0.00
                               Iterations  =  14
                                  Total H  = 1.110124e+02
                                  Total O  = 5.786872e+01

----------------------------Distribution of species----------------------------

                                               Log       Log       Log    mole V
   Species          Molality    Activity  Molality  Activity     Gamma   cm³/mol

   OH-             1.883e-07   1.034e-07    -6.725    -6.985    -0.260     -1.51
   H+              8.870e-08   6.500e-08    -7.052    -7.187    -0.135      0.00
   H2O             5.551e+01   9.821e-01     1.744    -0.008     0.000     18.05
H(0)          0.000e+00
   H2              0.000e+00   0.000e+00   -43.863   -43.705     0.158     28.61
La            2.625e-01
   La+3            2.625e-01   1.600e-02    -0.581    -1.796    -1.215     (0)  
N(-3)         0.000e+00
   NH4+            0.000e+00   0.000e+00   -55.318   -55.631    -0.313     18.53
   NH3             0.000e+00   0.000e+00   -58.002   -57.844     0.158     24.19
N(0)          1.373e-07
   N2              6.865e-08   9.866e-08    -7.163    -7.006     0.158     29.29
N(3)          2.781e-12
   NO2-            2.781e-12   1.445e-12   -11.556   -11.840    -0.284     25.79
N(5)          7.875e-01
   NO3-            7.875e-01   4.094e-01    -0.104    -0.388    -0.284     (0)  
O(0)          3.287e-07
   O2              1.643e-07   2.362e-07    -6.784    -6.627     0.158     29.98

------------------------------Saturation indices-------------------------------

  Phase               SI** log IAP   log K(293 K,   1 atm)

  H2(g)           -40.62    -43.71   -3.09  H2
  H2O(g)           -1.64     -0.01    1.63  H2O
  N2(g)            -3.86     -7.01   -3.14  N2
  NH3(g)          -59.75    -57.84    1.90  NH3
  O2(g)            -3.77     -6.63   -2.85  O2

**For a gas, SI = log10(fugacity). Fugacity = pressure * phi / 1 atm.
  For ideal gases, phi = 1.

Reaction step 9.

Using solution 1.	
Using reaction 1.	

Reaction 1.	

	  2.979e-01 moles of the following reaction have been added:

	                 Relative
	Reactant            moles

	La(NO3)3             1.00000

	                 Relative
	Element             moles
	La                   1.00000
	N                    3.00000
	O                    9.00000

-----------------------------Solution composition------------------------------

	Elements           Molality       Moles

	La                2.979e-01   2.979e-01
	N                 8.937e-01   8.937e-01

----------------------------Description of solution----------------------------

                                       pH  =   7.189      Charge balance
                                       pe  =  13.108      Adjusted to redox equilibrium
      Specific Conductance (µS/cm,  20°C)  = 48077
                          Density (g/cm³)  =   1.09482
                               Volume (L)  =   1.00180
                        Activity of water  =   0.980
                 Ionic strength (mol/kgw)  =   1.787e+00
                       Mass of water (kg)  =   1.000e+00
                 Total alkalinity (eq/kg)  =   1.030e-07
                         Temperature (°C)  =  20.00
                  Electrical balance (eq)  =   3.156e-08
 Percent error, 100*(Cat-|An|)/(Cat+|An|)  =   0.00
                               Iterations  =  15
                                  Total H  = 1.110124e+02
                                  Total O  = 5.818732e+01

----------------------------Distribution of species----------------------------

                                               Log       Log       Log    mole V
   Species          Molality    Activity  Molality  Activity     Gamma   cm³/mol

   OH-             1.916e-07   1.036e-07    -6.718    -6.984    -0.267     -1.21
   H+              8.867e-08   6.471e-08    -7.052    -7.189    -0.137      0.00
   H2O             5.551e+01   9.797e-01     1.744    -0.009     0.000     18.05
H(0)          0.000e+00
   H2              0.000e+00   0.000e+00   -43.900   -43.722     0.179     28.61
La            2.979e-01
   La+3            2.979e-01   1.750e-02    -0.526    -1.757    -1.231     (0)  
N(-3)         0.000e+00
   NH4+            0.000e+00   0.000e+00   -55.329   -55.652    -0.323     18.58
   NH3             0.000e+00   0.000e+00   -58.042   -57.863     0.179     24.19
N(0)          1.347e-07
   N2              6.735e-08   1.016e-07    -7.172    -6.993     0.179     29.29
N(3)          3.044e-12
   NO2-            3.044e-12   1.553e-12   -11.517   -11.809    -0.292     25.86
N(5)          8.937e-01
   NO3-            8.937e-01   4.561e-01    -0.049    -0.341    -0.292     (0)  
O(0)          3.363e-07
   O2              1.682e-07   2.538e-07    -6.774    -6.596     0.179     29.98

------------------------------Saturation indices-------------------------------

  Phase               SI** log IAP   log K(293 K,   1 atm)

  H2(g)           -40.63    -43.72   -3.09  H2
  H2O(g)           -1.64     -0.01    1.63  H2O
  N2(g)            -3.85     -6.99   -3.14  N2
  NH3(g)          -59.77    -57.86    1.90  NH3
  O2(g)            -3.74     -6.60   -2.85  O2

**For a gas, SI = log10(fugacity). Fugacity = pressure * phi / 1 atm.
  For ideal gases, phi = 1.

------------------
End of simulation.
------------------

------------------------------------
Reading input data for simulation 7.
------------------------------------

-------------------------------
End of Run after 0.033 Seconds.
-------------------------------

