WARNING: Database file from DATABASE keyword is used; command line argument ignored.
   Input file: salt_ec_chart
  Output file: salt_ec_chart.out
Database file: ../database/phreeqc.dat

------------------
Reading data base.
------------------

	SOLUTION_MASTER_SPECIES
	SOLUTION_SPECIES
	PHASES
	EXCHANGE_MASTER_SPECIES
	EXCHANGE_SPECIES
	SURFACE_MASTER_SPECIES
	SURFACE_SPECIES
	RATES
	END
------------------------------------
Reading input data for simulation 1.
------------------------------------

	DATABASE ../database/phreeqc.dat
	SOLUTION 0
	END
-------------------------------------------
Beginning of initial solution calculations.
-------------------------------------------

Initial solution 0.	

-----------------------------Solution composition------------------------------

	Elements           Molality       Moles

	Pure water     

----------------------------Description of solution----------------------------

                                       pH  =   7.000    
                                       pe  =   4.000    
       Specific Conductance (µS/cm, 25°C)  = 0
                          Density (g/cm³)  =   0.99704
                               Volume (L)  =   1.00297
                        Activity of water  =   1.000
                           Ionic strength  =   1.007e-07
                       Mass of water (kg)  =   1.000e+00
                 Total alkalinity (eq/kg)  =   1.217e-09
                    Total carbon (mol/kg)  =   0.000e+00
                       Total CO2 (mol/kg)  =   0.000e+00
                         Temperature (°C)  =  25.00
                  Electrical balance (eq)  =  -1.217e-09
 Percent error, 100*(Cat-|An|)/(Cat+|An|)  =  -0.60
                               Iterations  =   0
                                  Total H  = 1.110124e+02
                                  Total O  = 5.550622e+01

----------------------------Distribution of species----------------------------

                                               Log       Log       Log    mole V
   Species          Molality    Activity  Molality  Activity     Gamma   cm³/mol

   OH-             1.013e-07   1.012e-07    -6.995    -6.995    -0.000     -4.14
   H+              1.001e-07   1.000e-07    -7.000    -7.000    -0.000      0.00
   H2O             5.551e+01   1.000e+00     1.744     0.000     0.000     18.07
H(0)          1.416e-25
   H2              7.079e-26   7.079e-26   -25.150   -25.150     0.000     28.61
O(0)          0.000e+00
   O2              0.000e+00   0.000e+00   -42.080   -42.080     0.000     30.40

------------------------------Saturation indices-------------------------------

  Phase               SI** log IAP   log K(298 K,   1 atm)

  H2(g)           -22.05    -25.15   -3.10  H2
  H2O(g)           -1.50      0.00    1.50  H2O
  O2(g)           -39.19    -42.08   -2.89  O2

**For a gas, SI = log10(fugacity). Fugacity = pressure * phi / 1 atm.
  For ideal gases, phi = 1.

------------------
End of simulation.
------------------

------------------------------------
Reading input data for simulation 2.
------------------------------------

	USE solution 0
	REACTION 1
		KCl
		0.067069081 0.134138162 0.202548625 0.270959088
		0.340710932 0.409121395 0.478873239 0.549966465
		0.690811536 0.83433937  0.979208585 1.052984574 moles
	USER_GRAPH 1
	    -chart_title            "SPECIFIC CONDUCTANCE, 20 C
	    -headings               KCl_measured KCl_calculated
	    -axis_titles            "MOLES PER KILOGRAM WATER" "SPECIFIC CONDUCTANCE" ""
	    -start
	10 data 8200, 	15700, 	22700, 	29500, 	36500, 	43600, 	50600, 	57600, 	71900, 	86200, 	100000, 	108000
	20 dim d(12)
	25 restore 10
	40 for i = 1 to 12
	42   read d(i)
	50 next i
	60 j = GET(1) + 1
	70 plot_xy rxn, d(j), symbol = Square, line_w = 0, color = Red
	80 plot_xy rxn, SC,   symbol = None, line_w = 1, color = Red
	90 PUT(j, 1)
	    -end
	END
-----------------------------------------
Beginning of batch-reaction calculations.
-----------------------------------------

Reaction step 1.

Using solution 0.	
Using reaction 1.	

Reaction 1.	

	  6.707e-02 moles of the following reaction have been added:

	                 Relative
	Reactant            moles

	KCl                  1.00000

	                 Relative
	Element             moles
	Cl                   1.00000
	K                    1.00000

-----------------------------Solution composition------------------------------

	Elements           Molality       Moles

	Cl                6.707e-02   6.707e-02
	K                 6.707e-02   6.707e-02

----------------------------Description of solution----------------------------

                                       pH  =   6.987      Charge balance
                                       pe  =  11.478      Adjusted to redox equilibrium
       Specific Conductance (µS/cm, 25°C)  = 8750
                          Density (g/cm³)  =   1.00019
                               Volume (L)  =   1.00481
                        Activity of water  =   0.998
                           Ionic strength  =   6.707e-02
                       Mass of water (kg)  =   1.000e+00
                 Total alkalinity (eq/kg)  =   1.217e-09
                    Total carbon (mol/kg)  =   0.000e+00
                       Total CO2 (mol/kg)  =   0.000e+00
                         Temperature (°C)  =  25.00
                  Electrical balance (eq)  =  -1.216e-09
 Percent error, 100*(Cat-|An|)/(Cat+|An|)  =  -0.00
                               Iterations  =   9
                                  Total H  = 1.110124e+02
                                  Total O  = 5.550622e+01

----------------------------Distribution of species----------------------------

                                               Log       Log       Log    mole V
   Species          Molality    Activity  Molality  Activity     Gamma   cm³/mol

   OH-             1.238e-07   9.790e-08    -6.907    -7.009    -0.102     -3.82
   H+              1.225e-07   1.031e-07    -6.912    -6.987    -0.075      0.00
   H2O             5.551e+01   9.977e-01     1.744    -0.001     0.000     18.07
Cl            6.707e-02
   Cl-             6.707e-02   5.330e-02    -1.173    -1.273    -0.100     18.29
H(0)          0.000e+00
   H2              0.000e+00   0.000e+00   -40.086   -40.079     0.007     28.61
K             6.707e-02
   K+              6.707e-02   5.318e-02    -1.173    -1.274    -0.101      9.20
O(0)          1.175e-12
   O2              5.875e-13   5.966e-13   -12.231   -12.224     0.007     30.40

------------------------------Saturation indices-------------------------------

  Phase               SI** log IAP   log K(298 K,   1 atm)

  H2(g)           -36.98    -40.08   -3.10  H2
  H2O(g)           -1.50     -0.00    1.50  H2O
  O2(g)            -9.33    -12.22   -2.89  O2
  Sylvite          -3.45     -2.55    0.90  KCl

**For a gas, SI = log10(fugacity). Fugacity = pressure * phi / 1 atm.
  For ideal gases, phi = 1.

Reaction step 2.

Using solution 0.	
Using reaction 1.	

Reaction 1.	

	  1.341e-01 moles of the following reaction have been added:

	                 Relative
	Reactant            moles

	KCl                  1.00000

	                 Relative
	Element             moles
	Cl                   1.00000
	K                    1.00000

-----------------------------Solution composition------------------------------

	Elements           Molality       Moles

	Cl                1.341e-01   1.341e-01
	K                 1.341e-01   1.341e-01

----------------------------Description of solution----------------------------

                                       pH  =   6.980      Charge balance
                                       pe  =  11.480      Adjusted to redox equilibrium
       Specific Conductance (µS/cm, 25°C)  = 16830
                          Density (g/cm³)  =   1.00330
                               Volume (L)  =   1.00668
                        Activity of water  =   0.995
                           Ionic strength  =   1.341e-01
                       Mass of water (kg)  =   1.000e+00
                 Total alkalinity (eq/kg)  =   1.217e-09
                    Total carbon (mol/kg)  =   0.000e+00
                       Total CO2 (mol/kg)  =   0.000e+00
                         Temperature (°C)  =  25.00
                  Electrical balance (eq)  =  -1.215e-09
 Percent error, 100*(Cat-|An|)/(Cat+|An|)  =  -0.00
                               Iterations  =   9
                                  Total H  = 1.110124e+02
                                  Total O  = 5.550622e+01

----------------------------Distribution of species----------------------------

                                               Log       Log       Log    mole V
   Species          Molality    Activity  Molality  Activity     Gamma   cm³/mol

   OH-             1.301e-07   9.612e-08    -6.886    -7.017    -0.131     -3.65
   H+              1.289e-07   1.048e-07    -6.890    -6.980    -0.090      0.00
   H2O             5.551e+01   9.954e-01     1.744    -0.002     0.000     18.07
Cl            1.341e-01
   Cl-             1.341e-01   9.996e-02    -0.872    -1.000    -0.128     18.38
H(0)          0.000e+00
   H2              0.000e+00   0.000e+00   -40.083   -40.069     0.013     28.61
K             1.341e-01
   K+              1.341e-01   9.957e-02    -0.872    -1.002    -0.129      9.28
O(0)          1.102e-12
   O2              5.508e-13   5.681e-13   -12.259   -12.246     0.013     30.40

------------------------------Saturation indices-------------------------------

  Phase               SI** log IAP   log K(298 K,   1 atm)

  H2(g)           -36.97    -40.07   -3.10  H2
  H2O(g)           -1.50     -0.00    1.50  H2O
  O2(g)            -9.35    -12.25   -2.89  O2
  Sylvite          -2.90     -2.00    0.90  KCl

**For a gas, SI = log10(fugacity). Fugacity = pressure * phi / 1 atm.
  For ideal gases, phi = 1.

Reaction step 3.

Using solution 0.	
Using reaction 1.	

Reaction 1.	

	  2.025e-01 moles of the following reaction have been added:

	                 Relative
	Reactant            moles

	KCl                  1.00000

	                 Relative
	Element             moles
	Cl                   1.00000
	K                    1.00000

-----------------------------Solution composition------------------------------

	Elements           Molality       Moles

	Cl                2.025e-01   2.025e-01
	K                 2.025e-01   2.025e-01

----------------------------Description of solution----------------------------

                                       pH  =   6.974      Charge balance
                                       pe  =  11.482      Adjusted to redox equilibrium
       Specific Conductance (µS/cm, 25°C)  = 24772
                          Density (g/cm³)  =   1.00645
                               Volume (L)  =   1.00860
                        Activity of water  =   0.993
                           Ionic strength  =   2.025e-01
                       Mass of water (kg)  =   1.000e+00
                 Total alkalinity (eq/kg)  =   1.217e-09
                    Total carbon (mol/kg)  =   0.000e+00
                       Total CO2 (mol/kg)  =   0.000e+00
                         Temperature (°C)  =  25.00
                  Electrical balance (eq)  =  -1.199e-09
 Percent error, 100*(Cat-|An|)/(Cat+|An|)  =  -0.00
                               Iterations  =   9
                                  Total H  = 1.110124e+02
                                  Total O  = 5.550622e+01

----------------------------Distribution of species----------------------------

                                               Log       Log       Log    mole V
   Species          Molality    Activity  Molality  Activity     Gamma   cm³/mol

   OH-             1.343e-07   9.478e-08    -6.872    -7.023    -0.151     -3.49
   H+              1.331e-07   1.061e-07    -6.876    -6.974    -0.098      0.00
   H2O             5.551e+01   9.931e-01     1.744    -0.003     0.000     18.07
Cl            2.025e-01
   Cl-             2.025e-01   1.447e-01    -0.693    -0.839    -0.146     18.46
H(0)          0.000e+00
   H2              0.000e+00   0.000e+00   -40.083   -40.063     0.020     28.61
K             2.025e-01
   K+              2.025e-01   1.440e-01    -0.693    -0.842    -0.148      9.35
O(0)          1.049e-12
   O2              5.244e-13   5.494e-13   -12.280   -12.260     0.020     30.40

------------------------------Saturation indices-------------------------------

  Phase               SI** log IAP   log K(298 K,   1 atm)

  H2(g)           -36.96    -40.06   -3.10  H2
  H2O(g)           -1.51     -0.00    1.50  H2O
  O2(g)            -9.37    -12.26   -2.89  O2
  Sylvite          -2.58     -1.68    0.90  KCl

**For a gas, SI = log10(fugacity). Fugacity = pressure * phi / 1 atm.
  For ideal gases, phi = 1.

Reaction step 4.

Using solution 0.	
Using reaction 1.	

Reaction 1.	

	  2.710e-01 moles of the following reaction have been added:

	                 Relative
	Reactant            moles

	KCl                  1.00000

	                 Relative
	Element             moles
	Cl                   1.00000
	K                    1.00000

-----------------------------Solution composition------------------------------

	Elements           Molality       Moles

	Cl                2.710e-01   2.710e-01
	K                 2.710e-01   2.710e-01

----------------------------Description of solution----------------------------

                                       pH  =   6.971      Charge balance
                                       pe  =  11.484      Adjusted to redox equilibrium
       Specific Conductance (µS/cm, 25°C)  = 32525
                          Density (g/cm³)  =   1.00957
                               Volume (L)  =   1.01053
                        Activity of water  =   0.991
                           Ionic strength  =   2.710e-01
                       Mass of water (kg)  =   1.000e+00
                 Total alkalinity (eq/kg)  =   1.217e-09
                    Total carbon (mol/kg)  =   0.000e+00
                       Total CO2 (mol/kg)  =   0.000e+00
                         Temperature (°C)  =  25.00
                  Electrical balance (eq)  =  -1.141e-09
 Percent error, 100*(Cat-|An|)/(Cat+|An|)  =  -0.00
                               Iterations  =   9
                                  Total H  = 1.110124e+02
                                  Total O  = 5.550622e+01

----------------------------Distribution of species----------------------------

                                               Log       Log       Log    mole V
   Species          Molality    Activity  Molality  Activity     Gamma   cm³/mol

   OH-             1.374e-07   9.371e-08    -6.862    -7.028    -0.166     -3.35
   H+              1.361e-07   1.070e-07    -6.866    -6.971    -0.105      0.00
   H2O             5.551e+01   9.908e-01     1.744    -0.004     0.000     18.07
Cl            2.710e-01
   Cl-             2.710e-01   1.878e-01    -0.567    -0.726    -0.159     18.52
H(0)          0.000e+00
   H2              0.000e+00   0.000e+00   -40.086   -40.059     0.027     28.61
K             2.710e-01
   K+              2.710e-01   1.866e-01    -0.567    -0.729    -0.162      9.40
O(0)          1.007e-12
   O2              5.034e-13   5.358e-13   -12.298   -12.271     0.027     30.40

------------------------------Saturation indices-------------------------------

  Phase               SI** log IAP   log K(298 K,   1 atm)

  H2(g)           -36.96    -40.06   -3.10  H2
  H2O(g)           -1.51     -0.00    1.50  H2O
  O2(g)            -9.38    -12.27   -2.89  O2
  Sylvite          -2.36     -1.46    0.90  KCl

**For a gas, SI = log10(fugacity). Fugacity = pressure * phi / 1 atm.
  For ideal gases, phi = 1.

Reaction step 5.

Using solution 0.	
Using reaction 1.	

Reaction 1.	

	  3.407e-01 moles of the following reaction have been added:

	                 Relative
	Reactant            moles

	KCl                  1.00000

	                 Relative
	Element             moles
	Cl                   1.00000
	K                    1.00000

-----------------------------Solution composition------------------------------

	Elements           Molality       Moles

	Cl                3.407e-01   3.407e-01
	K                 3.407e-01   3.407e-01

----------------------------Description of solution----------------------------

                                       pH  =   6.967      Charge balance
                                       pe  =  11.486      Adjusted to redox equilibrium
       Specific Conductance (µS/cm, 25°C)  = 40294
                          Density (g/cm³)  =   1.01273
                               Volume (L)  =   1.01252
                        Activity of water  =   0.988
                           Ionic strength  =   3.407e-01
                       Mass of water (kg)  =   1.000e+00
                 Total alkalinity (eq/kg)  =   1.217e-09
                    Total carbon (mol/kg)  =   0.000e+00
                       Total CO2 (mol/kg)  =   0.000e+00
                         Temperature (°C)  =  25.00
                  Electrical balance (eq)  =  -9.348e-10
 Percent error, 100*(Cat-|An|)/(Cat+|An|)  =  -0.00
                               Iterations  =   9
                                  Total H  = 1.110124e+02
                                  Total O  = 5.550622e+01

----------------------------Distribution of species----------------------------

                                               Log       Log       Log    mole V
   Species          Molality    Activity  Molality  Activity     Gamma   cm³/mol

   OH-             1.399e-07   9.280e-08    -6.854    -7.032    -0.178     -3.22
   H+              1.386e-07   1.078e-07    -6.858    -6.967    -0.109      0.00
   H2O             5.551e+01   9.884e-01     1.744    -0.005     0.000     18.07
Cl            3.407e-01
   Cl-             3.407e-01   2.305e-01    -0.468    -0.637    -0.170     18.58
H(0)          0.000e+00
   H2              0.000e+00   0.000e+00   -40.090   -40.056     0.034     28.61
K             3.407e-01
   K+              3.407e-01   2.287e-01    -0.468    -0.641    -0.173      9.45
O(0)          9.748e-13
   O2              4.874e-13   5.272e-13   -12.312   -12.278     0.034     30.40

------------------------------Saturation indices-------------------------------

  Phase               SI** log IAP   log K(298 K,   1 atm)

  H2(g)           -36.95    -40.06   -3.10  H2
  H2O(g)           -1.51     -0.01    1.50  H2O
  O2(g)            -9.39    -12.28   -2.89  O2
  Sylvite          -2.18     -1.28    0.90  KCl

**For a gas, SI = log10(fugacity). Fugacity = pressure * phi / 1 atm.
  For ideal gases, phi = 1.

Reaction step 6.

Using solution 0.	
Using reaction 1.	

Reaction 1.	

	  4.091e-01 moles of the following reaction have been added:

	                 Relative
	Reactant            moles

	KCl                  1.00000

	                 Relative
	Element             moles
	Cl                   1.00000
	K                    1.00000

-----------------------------Solution composition------------------------------

	Elements           Molality       Moles

	Cl                4.091e-01   4.091e-01
	K                 4.091e-01   4.091e-01

----------------------------Description of solution----------------------------

                                       pH  =   6.965      Charge balance
                                       pe  =  11.487      Adjusted to redox equilibrium
       Specific Conductance (µS/cm, 25°C)  = 47035
                          Density (g/cm³)  =   1.01580
                               Volume (L)  =   1.01447
                        Activity of water  =   0.986
                           Ionic strength  =   4.091e-01
                       Mass of water (kg)  =   1.000e+00
                 Total alkalinity (eq/kg)  =   1.217e-09
                    Total carbon (mol/kg)  =   0.000e+00
                       Total CO2 (mol/kg)  =   0.000e+00
                         Temperature (°C)  =  25.00
                  Electrical balance (eq)  =  -6.618e-10
 Percent error, 100*(Cat-|An|)/(Cat+|An|)  =  -0.00
                               Iterations  =   9
                                  Total H  = 1.110124e+02
                                  Total O  = 5.550622e+01

----------------------------Distribution of species----------------------------

                                               Log       Log       Log    mole V
   Species          Molality    Activity  Molality  Activity     Gamma   cm³/mol

   OH-             1.419e-07   9.202e-08    -6.848    -7.036    -0.188     -3.09
   H+              1.406e-07   1.085e-07    -6.852    -6.965    -0.113      0.00
   H2O             5.551e+01   9.861e-01     1.744    -0.006     0.000     18.07
Cl            4.091e-01
   Cl-             4.091e-01   2.715e-01    -0.388    -0.566    -0.178     18.63
H(0)          0.000e+00
   H2              0.000e+00   0.000e+00   -40.094   -40.053     0.041     28.61
K             4.091e-01
   K+              4.091e-01   2.692e-01    -0.388    -0.570    -0.182      9.50
O(0)          9.400e-13
   O2              4.700e-13   5.164e-13   -12.328   -12.287     0.041     30.40

------------------------------Saturation indices-------------------------------

  Phase               SI** log IAP   log K(298 K,   1 atm)

  H2(g)           -36.95    -40.05   -3.10  H2
  H2O(g)           -1.51     -0.01    1.50  H2O
  O2(g)            -9.39    -12.29   -2.89  O2
  Sylvite          -2.04     -1.14    0.90  KCl

**For a gas, SI = log10(fugacity). Fugacity = pressure * phi / 1 atm.
  For ideal gases, phi = 1.

Reaction step 7.

Using solution 0.	
Using reaction 1.	

Reaction 1.	

	  4.789e-01 moles of the following reaction have been added:

	                 Relative
	Reactant            moles

	KCl                  1.00000

	                 Relative
	Element             moles
	Cl                   1.00000
	K                    1.00000

-----------------------------Solution composition------------------------------

	Elements           Molality       Moles

	Cl                4.789e-01   4.789e-01
	K                 4.789e-01   4.789e-01

----------------------------Description of solution----------------------------

                                       pH  =   6.962      Charge balance
                                       pe  =  11.380      Adjusted to redox equilibrium
       Specific Conductance (µS/cm, 25°C)  = 53248
                          Density (g/cm³)  =   1.01891
                               Volume (L)  =   1.01648
                        Activity of water  =   0.984
                           Ionic strength  =   4.789e-01
                       Mass of water (kg)  =   1.000e+00
                 Total alkalinity (eq/kg)  =   1.217e-09
                    Total carbon (mol/kg)  =   0.000e+00
                       Total CO2 (mol/kg)  =   0.000e+00
                         Temperature (°C)  =  25.00
                  Electrical balance (eq)  =  -1.217e-09
 Percent error, 100*(Cat-|An|)/(Cat+|An|)  =  -0.00
                               Iterations  =  10
                                  Total H  = 1.110124e+02
                                  Total O  = 5.550622e+01

----------------------------Distribution of species----------------------------

                                               Log       Log       Log    mole V
   Species          Molality    Activity  Molality  Activity     Gamma   cm³/mol

   OH-             1.436e-07   9.132e-08    -6.843    -7.039    -0.197     -2.96
   H+              1.424e-07   1.090e-07    -6.847    -6.962    -0.116      0.00
   H2O             5.551e+01   9.837e-01     1.744    -0.007     0.000     18.07
Cl            4.789e-01
   Cl-             4.789e-01   3.126e-01    -0.320    -0.505    -0.185     18.68
H(0)          2.623e-40
   H2              1.312e-40   1.465e-40   -39.882   -39.834     0.048     28.61
K             4.789e-01
   K+              4.789e-01   3.096e-01    -0.320    -0.509    -0.189      9.55
O(0)          3.369e-13
   O2              1.684e-13   1.881e-13   -12.774   -12.726     0.048     30.40

------------------------------Saturation indices-------------------------------

  Phase               SI** log IAP   log K(298 K,   1 atm)

  H2(g)           -36.73    -39.83   -3.10  H2
  H2O(g)           -1.51     -0.01    1.50  H2O
  O2(g)            -9.83    -12.73   -2.89  O2
  Sylvite          -1.91     -1.01    0.90  KCl

**For a gas, SI = log10(fugacity). Fugacity = pressure * phi / 1 atm.
  For ideal gases, phi = 1.

Reaction step 8.

Using solution 0.	
Using reaction 1.	

Reaction 1.	

	  5.500e-01 moles of the following reaction have been added:

	                 Relative
	Reactant            moles

	KCl                  1.00000

	                 Relative
	Element             moles
	Cl                   1.00000
	K                    1.00000

-----------------------------Solution composition------------------------------

	Elements           Molality       Moles

	Cl                5.500e-01   5.500e-01
	K                 5.500e-01   5.500e-01

----------------------------Description of solution----------------------------

                                       pH  =   6.960      Charge balance
                                       pe  =  11.381      Adjusted to redox equilibrium
       Specific Conductance (µS/cm, 25°C)  = 59215
                          Density (g/cm³)  =   1.02206
                               Volume (L)  =   1.01854
                        Activity of water  =   0.981
                           Ionic strength  =   5.500e-01
                       Mass of water (kg)  =   1.000e+00
                 Total alkalinity (eq/kg)  =   1.217e-09
                    Total carbon (mol/kg)  =   0.000e+00
                       Total CO2 (mol/kg)  =   0.000e+00
                         Temperature (°C)  =  25.00
                  Electrical balance (eq)  =  -1.217e-09
 Percent error, 100*(Cat-|An|)/(Cat+|An|)  =  -0.00
                               Iterations  =  10
                                  Total H  = 1.110124e+02
                                  Total O  = 5.550622e+01

----------------------------Distribution of species----------------------------

                                               Log       Log       Log    mole V
   Species          Molality    Activity  Molality  Activity     Gamma   cm³/mol

   OH-             1.451e-07   9.068e-08    -6.838    -7.042    -0.204     -2.84
   H+              1.439e-07   1.095e-07    -6.842    -6.960    -0.118      0.00
   H2O             5.551e+01   9.813e-01     1.744    -0.008     0.000     18.07
Cl            5.500e-01
   Cl-             5.500e-01   3.540e-01    -0.260    -0.451    -0.191     18.72
H(0)          2.589e-40
   H2              1.295e-40   1.469e-40   -39.888   -39.833     0.055     28.61
K             5.500e-01
   K+              5.500e-01   3.503e-01    -0.260    -0.456    -0.196      9.59
O(0)          3.276e-13
   O2              1.638e-13   1.859e-13   -12.786   -12.731     0.055     30.40

------------------------------Saturation indices-------------------------------

  Phase               SI** log IAP   log K(298 K,   1 atm)

  H2(g)           -36.73    -39.83   -3.10  H2
  H2O(g)           -1.51     -0.01    1.50  H2O
  O2(g)            -9.84    -12.73   -2.89  O2
  Sylvite          -1.81     -0.91    0.90  KCl

**For a gas, SI = log10(fugacity). Fugacity = pressure * phi / 1 atm.
  For ideal gases, phi = 1.

Reaction step 9.

Using solution 0.	
Using reaction 1.	

Reaction 1.	

	  6.908e-01 moles of the following reaction have been added:

	                 Relative
	Reactant            moles

	KCl                  1.00000

	                 Relative
	Element             moles
	Cl                   1.00000
	K                    1.00000

-----------------------------Solution composition------------------------------

	Elements           Molality       Moles

	Cl                6.908e-01   6.908e-01
	K                 6.908e-01   6.908e-01

----------------------------Description of solution----------------------------

                                       pH  =   6.957      Charge balance
                                       pe  =  11.386      Adjusted to redox equilibrium
       Specific Conductance (µS/cm, 25°C)  = 70097
                          Density (g/cm³)  =   1.02823
                               Volume (L)  =   1.02263
                        Activity of water  =   0.977
                           Ionic strength  =   6.908e-01
                       Mass of water (kg)  =   1.000e+00
                 Total alkalinity (eq/kg)  =   1.217e-09
                    Total carbon (mol/kg)  =   0.000e+00
                       Total CO2 (mol/kg)  =   0.000e+00
                         Temperature (°C)  =  25.00
                  Electrical balance (eq)  =  -1.145e-09
 Percent error, 100*(Cat-|An|)/(Cat+|An|)  =  -0.00
                               Iterations  =  10
                                  Total H  = 1.110124e+02
                                  Total O  = 5.550622e+01

----------------------------Distribution of species----------------------------

                                               Log       Log       Log    mole V
   Species          Molality    Activity  Molality  Activity     Gamma   cm³/mol

   OH-             1.476e-07   8.957e-08    -6.831    -7.048    -0.217     -2.60
   H+              1.463e-07   1.103e-07    -6.835    -6.957    -0.123      0.00
   H2O             5.551e+01   9.765e-01     1.744    -0.010     0.000     18.07
Cl            6.908e-01
   Cl-             6.908e-01   4.347e-01    -0.161    -0.362    -0.201     18.80
H(0)          2.481e-40
   H2              1.241e-40   1.454e-40   -39.906   -39.837     0.069     28.61
K             6.908e-01
   K+              6.908e-01   4.295e-01    -0.161    -0.367    -0.206      9.67
O(0)          3.206e-13
   O2              1.603e-13   1.879e-13   -12.795   -12.726     0.069     30.40

------------------------------Saturation indices-------------------------------

  Phase               SI** log IAP   log K(298 K,   1 atm)

  H2(g)           -36.74    -39.84   -3.10  H2
  H2O(g)           -1.51     -0.01    1.50  H2O
  O2(g)            -9.83    -12.73   -2.89  O2
  Sylvite          -1.63     -0.73    0.90  KCl

**For a gas, SI = log10(fugacity). Fugacity = pressure * phi / 1 atm.
  For ideal gases, phi = 1.

Reaction step 10.

Using solution 0.	
Using reaction 1.	

Reaction 1.	

	  8.343e-01 moles of the following reaction have been added:

	                 Relative
	Reactant            moles

	KCl                  1.00000

	                 Relative
	Element             moles
	Cl                   1.00000
	K                    1.00000

-----------------------------Solution composition------------------------------

	Elements           Molality       Moles

	Cl                8.343e-01   8.343e-01
	K                 8.343e-01   8.343e-01

----------------------------Description of solution----------------------------

                                       pH  =   6.955      Charge balance
                                       pe  =  11.388      Adjusted to redox equilibrium
       Specific Conductance (µS/cm, 25°C)  = 80102
                          Density (g/cm³)  =   1.03443
                               Volume (L)  =   1.02685
                        Activity of water  =   0.972
                           Ionic strength  =   8.343e-01
                       Mass of water (kg)  =   1.000e+00
                 Total alkalinity (eq/kg)  =   1.217e-09
                    Total carbon (mol/kg)  =   0.000e+00
                       Total CO2 (mol/kg)  =   0.000e+00
                         Temperature (°C)  =  25.00
                  Electrical balance (eq)  =  -1.215e-09
 Percent error, 100*(Cat-|An|)/(Cat+|An|)  =  -0.00
                               Iterations  =  10
                                  Total H  = 1.110124e+02
                                  Total O  = 5.550622e+01

----------------------------Distribution of species----------------------------

                                               Log       Log       Log    mole V
   Species          Molality    Activity  Molality  Activity     Gamma   cm³/mol

   OH-             1.495e-07   8.861e-08    -6.825    -7.053    -0.227     -2.37
   H+              1.483e-07   1.110e-07    -6.829    -6.955    -0.126      0.00
   H2O             5.551e+01   9.716e-01     1.744    -0.012     0.000     18.07
Cl            8.343e-01
   Cl-             8.343e-01   5.159e-01    -0.079    -0.287    -0.209     18.87
H(0)          2.408e-40
   H2              1.204e-40   1.459e-40   -39.919   -39.836     0.083     28.61
K             8.343e-01
   K+              8.343e-01   5.089e-01    -0.079    -0.293    -0.215      9.75
O(0)          3.051e-13
   O2              1.526e-13   1.849e-13   -12.817   -12.733     0.083     30.40

------------------------------Saturation indices-------------------------------

  Phase               SI** log IAP   log K(298 K,   1 atm)

  H2(g)           -36.73    -39.84   -3.10  H2
  H2O(g)           -1.52     -0.01    1.50  H2O
  O2(g)            -9.84    -12.73   -2.89  O2
  Sylvite          -1.48     -0.58    0.90  KCl

**For a gas, SI = log10(fugacity). Fugacity = pressure * phi / 1 atm.
  For ideal gases, phi = 1.

Reaction step 11.

Using solution 0.	
Using reaction 1.	

Reaction 1.	

	  9.792e-01 moles of the following reaction have been added:

	                 Relative
	Reactant            moles

	KCl                  1.00000

	                 Relative
	Element             moles
	Cl                   1.00000
	K                    1.00000

-----------------------------Solution composition------------------------------

	Elements           Molality       Moles

	Cl                9.792e-01   9.792e-01
	K                 9.792e-01   9.792e-01

----------------------------Description of solution----------------------------

                                       pH  =   6.953      Charge balance
                                       pe  =  11.389      Adjusted to redox equilibrium
       Specific Conductance (µS/cm, 25°C)  = 89281
                          Density (g/cm³)  =   1.04061
                               Volume (L)  =   1.03113
                        Activity of water  =   0.967
                           Ionic strength  =   9.792e-01
                       Mass of water (kg)  =   1.000e+00
                 Total alkalinity (eq/kg)  =   1.217e-09
                    Total carbon (mol/kg)  =   0.000e+00
                       Total CO2 (mol/kg)  =   0.000e+00
                         Temperature (°C)  =  25.00
                  Electrical balance (eq)  =  -1.217e-09
 Percent error, 100*(Cat-|An|)/(Cat+|An|)  =  -0.00
                               Iterations  =  10
                                  Total H  = 1.110124e+02
                                  Total O  = 5.550622e+01

----------------------------Distribution of species----------------------------

                                               Log       Log       Log    mole V
   Species          Molality    Activity  Molality  Activity     Gamma   cm³/mol

   OH-             1.511e-07   8.775e-08    -6.821    -7.057    -0.236     -2.14
   H+              1.499e-07   1.115e-07    -6.824    -6.953    -0.129      0.00
   H2O             5.551e+01   9.667e-01     1.744    -0.015     0.000     18.07
Cl            9.792e-01
   Cl-             9.792e-01   5.970e-01    -0.009    -0.224    -0.215     18.94
H(0)          2.344e-40
   H2              1.172e-40   1.468e-40   -39.931   -39.833     0.098     28.61
K             9.792e-01
   K+              9.792e-01   5.881e-01    -0.009    -0.231    -0.221      9.83
O(0)          2.884e-13
   O2              1.442e-13   1.807e-13   -12.841   -12.743     0.098     30.40

------------------------------Saturation indices-------------------------------

  Phase               SI** log IAP   log K(298 K,   1 atm)

  H2(g)           -36.73    -39.83   -3.10  H2
  H2O(g)           -1.52     -0.01    1.50  H2O
  O2(g)            -9.85    -12.74   -2.89  O2
  Sylvite          -1.35     -0.45    0.90  KCl

**For a gas, SI = log10(fugacity). Fugacity = pressure * phi / 1 atm.
  For ideal gases, phi = 1.

Reaction step 12.

Using solution 0.	
Using reaction 1.	

Reaction 1.	

	  1.053e+00 moles of the following reaction have been added:

	                 Relative
	Reactant            moles

	KCl                  1.00000

	                 Relative
	Element             moles
	Cl                   1.00000
	K                    1.00000

-----------------------------Solution composition------------------------------

	Elements           Molality       Moles

	Cl                1.053e+00   1.053e+00
	K                 1.053e+00   1.053e+00

----------------------------Description of solution----------------------------

                                       pH  =   6.952      Charge balance
                                       pe  =  11.390      Adjusted to redox equilibrium
       Specific Conductance (µS/cm, 25°C)  = 93650
                          Density (g/cm³)  =   1.04372
                               Volume (L)  =   1.03333
                        Activity of water  =   0.964
                           Ionic strength  =   1.053e+00
                       Mass of water (kg)  =   1.000e+00
                 Total alkalinity (eq/kg)  =   1.217e-09
                    Total carbon (mol/kg)  =   0.000e+00
                       Total CO2 (mol/kg)  =   0.000e+00
                         Temperature (°C)  =  25.00
                  Electrical balance (eq)  =  -1.217e-09
 Percent error, 100*(Cat-|An|)/(Cat+|An|)  =  -0.00
                               Iterations  =  10
                                  Total H  = 1.110124e+02
                                  Total O  = 5.550622e+01

----------------------------Distribution of species----------------------------

                                               Log       Log       Log    mole V
   Species          Molality    Activity  Molality  Activity     Gamma   cm³/mol

   OH-             1.518e-07   8.735e-08    -6.819    -7.059    -0.240     -2.02
   H+              1.506e-07   1.117e-07    -6.822    -6.952    -0.130      0.00
   H2O             5.551e+01   9.642e-01     1.744    -0.016     0.000     18.07
Cl            1.053e+00
   Cl-             1.053e+00   6.382e-01     0.022    -0.195    -0.217     18.97
H(0)          2.301e-40
   H2              1.151e-40   1.466e-40   -39.939   -39.834     0.105     28.61
K             1.053e+00
   K+              1.053e+00   6.282e-01     0.022    -0.202    -0.224      9.87
O(0)          2.829e-13
   O2              1.414e-13   1.803e-13   -12.849   -12.744     0.105     30.40

------------------------------Saturation indices-------------------------------

  Phase               SI** log IAP   log K(298 K,   1 atm)

  H2(g)           -36.73    -39.83   -3.10  H2
  H2O(g)           -1.52     -0.02    1.50  H2O
  O2(g)            -9.85    -12.74   -2.89  O2
  Sylvite          -1.30     -0.40    0.90  KCl

**For a gas, SI = log10(fugacity). Fugacity = pressure * phi / 1 atm.
  For ideal gases, phi = 1.

------------------
End of simulation.
------------------

------------------------------------
Reading input data for simulation 3.
------------------------------------

	USE solution 0
	REACTION 1
		NaCl
		0.085557837
		0.172826831
		0.258384668
		0.345653662
		0.434633812
		0.523613963
		0.612594114
		0.684462697
		0.865845311
		1.031827515
		1.368925394
		1.676933607 
	USER_GRAPH 1
	    -headings               NaCl_measured NaCl_calculated
	    -start
	10 data 8200, 	16000, 	23200, 	30200, 	37100, 	44000, 	50700, 	56000, 	68900, 	80000, 	101000, 	118000
	20 dim d(12)
	25 restore 10
	40 for i = 1 to 12
	42   read d(i)
	50 next i
	60 j = GET(2) + 1
	70 plot_xy rxn, d(j), symbol = Square, line_w = 0, color = Green
	80 plot_xy rxn, SC,   symbol = None, line_w = 1, color = Green
	90 PUT(j, 2)
	    -end
	END
-----------------------------------------
Beginning of batch-reaction calculations.
-----------------------------------------

Reaction step 1.

Using solution 0.	
Using reaction 1.	

Reaction 1.	

	  8.556e-02 moles of the following reaction have been added:

	                 Relative
	Reactant            moles

	NaCl                 1.00000

	                 Relative
	Element             moles
	Cl                   1.00000
	Na                   1.00000

-----------------------------Solution composition------------------------------

	Elements           Molality       Moles

	Cl                8.556e-02   8.556e-02
	Na                8.556e-02   8.556e-02

----------------------------Description of solution----------------------------

                                       pH  =   6.984      Charge balance
                                       pe  =  11.479      Adjusted to redox equilibrium
       Specific Conductance (µS/cm, 25°C)  = 9331
                          Density (g/cm³)  =   1.00056
                               Volume (L)  =   1.00444
                        Activity of water  =   0.997
                           Ionic strength  =   8.556e-02
                       Mass of water (kg)  =   1.000e+00
                 Total alkalinity (eq/kg)  =   1.217e-09
                    Total carbon (mol/kg)  =   0.000e+00
                       Total CO2 (mol/kg)  =   0.000e+00
                         Temperature (°C)  =  25.00
                  Electrical balance (eq)  =  -1.217e-09
 Percent error, 100*(Cat-|An|)/(Cat+|An|)  =  -0.00
                               Iterations  =   9
                                  Total H  = 1.110124e+02
                                  Total O  = 5.550622e+01

----------------------------Distribution of species----------------------------

                                               Log       Log       Log    mole V
   Species          Molality    Activity  Molality  Activity     Gamma   cm³/mol

   OH-             1.259e-07   9.734e-08    -6.900    -7.012    -0.112     -3.77
   H+              1.247e-07   1.037e-07    -6.904    -6.984    -0.080      0.00
   H2O             5.551e+01   9.971e-01     1.744    -0.001     0.000     18.07
Cl            8.556e-02
   Cl-             8.556e-02   6.654e-02    -1.068    -1.177    -0.109     18.32
H(0)          0.000e+00
   H2              0.000e+00   0.000e+00   -40.084   -40.076     0.009     28.61
Na            8.556e-02
   Na+             8.556e-02   6.794e-02    -1.068    -1.168    -0.100     -1.12
   NaOH            6.484e-19   6.613e-19   -18.188   -18.180     0.009     (0)  
O(0)          1.152e-12
   O2              5.758e-13   5.872e-13   -12.240   -12.231     0.009     30.40

------------------------------Saturation indices-------------------------------

  Phase               SI** log IAP   log K(298 K,   1 atm)

  H2(g)           -36.97    -40.08   -3.10  H2
  H2O(g)           -1.50     -0.00    1.50  H2O
  Halite           -3.91     -2.34    1.57  NaCl
  O2(g)            -9.34    -12.23   -2.89  O2

**For a gas, SI = log10(fugacity). Fugacity = pressure * phi / 1 atm.
  For ideal gases, phi = 1.

Reaction step 2.

Using solution 0.	
Using reaction 1.	

Reaction 1.	

	  1.728e-01 moles of the following reaction have been added:

	                 Relative
	Reactant            moles

	NaCl                 1.00000

	                 Relative
	Element             moles
	Cl                   1.00000
	Na                   1.00000

-----------------------------Solution composition------------------------------

	Elements           Molality       Moles

	Cl                1.728e-01   1.728e-01
	Na                1.728e-01   1.728e-01

----------------------------Description of solution----------------------------

                                       pH  =   6.976      Charge balance
                                       pe  =  11.481      Adjusted to redox equilibrium
       Specific Conductance (µS/cm, 25°C)  = 18171
                          Density (g/cm³)  =   1.00409
                               Volume (L)  =   1.00598
                        Activity of water  =   0.994
                           Ionic strength  =   1.728e-01
                       Mass of water (kg)  =   1.000e+00
                 Total alkalinity (eq/kg)  =   1.217e-09
                    Total carbon (mol/kg)  =   0.000e+00
                       Total CO2 (mol/kg)  =   0.000e+00
                         Temperature (°C)  =  25.00
                  Electrical balance (eq)  =  -1.252e-09
 Percent error, 100*(Cat-|An|)/(Cat+|An|)  =  -0.00
                               Iterations  =   9
                                  Total H  = 1.110124e+02
                                  Total O  = 5.550622e+01

----------------------------Distribution of species----------------------------

                                               Log       Log       Log    mole V
   Species          Molality    Activity  Molality  Activity     Gamma   cm³/mol

   OH-             1.326e-07   9.532e-08    -6.877    -7.021    -0.143     -3.56
   H+              1.314e-07   1.056e-07    -6.881    -6.976    -0.095      0.00
   H2O             5.551e+01   9.941e-01     1.744    -0.003     0.000     18.07
Cl            1.728e-01
   Cl-             1.728e-01   1.255e-01    -0.762    -0.901    -0.139     18.43
H(0)          0.000e+00
   H2              0.000e+00   0.000e+00   -40.083   -40.065     0.017     28.61
Na            1.728e-01
   Na+             1.728e-01   1.305e-01    -0.762    -0.884    -0.122     -0.97
   NaOH            1.195e-18   1.244e-18   -17.922   -17.905     0.017     (0)  
O(0)          1.070e-12
   O2              5.351e-13   5.568e-13   -12.272   -12.254     0.017     30.40

------------------------------Saturation indices-------------------------------

  Phase               SI** log IAP   log K(298 K,   1 atm)

  H2(g)           -36.96    -40.07   -3.10  H2
  H2O(g)           -1.51     -0.00    1.50  H2O
  Halite           -3.36     -1.79    1.57  NaCl
  O2(g)            -9.36    -12.25   -2.89  O2

**For a gas, SI = log10(fugacity). Fugacity = pressure * phi / 1 atm.
  For ideal gases, phi = 1.

Reaction step 3.

Using solution 0.	
Using reaction 1.	

Reaction 1.	

	  2.584e-01 moles of the following reaction have been added:

	                 Relative
	Reactant            moles

	NaCl                 1.00000

	                 Relative
	Element             moles
	Cl                   1.00000
	Na                   1.00000

-----------------------------Solution composition------------------------------

	Elements           Molality       Moles

	Cl                2.584e-01   2.584e-01
	Na                2.584e-01   2.584e-01

----------------------------Description of solution----------------------------

                                       pH  =   6.971      Charge balance
                                       pe  =  11.483      Adjusted to redox equilibrium
       Specific Conductance (µS/cm, 25°C)  = 26598
                          Density (g/cm³)  =   1.00752
                               Volume (L)  =   1.00753
                        Activity of water  =   0.991
                           Ionic strength  =   2.584e-01
                       Mass of water (kg)  =   1.000e+00
                 Total alkalinity (eq/kg)  =   1.217e-09
                    Total carbon (mol/kg)  =   0.000e+00
                       Total CO2 (mol/kg)  =   0.000e+00
                         Temperature (°C)  =  25.00
                  Electrical balance (eq)  =  -1.482e-09
 Percent error, 100*(Cat-|An|)/(Cat+|An|)  =  -0.00
                               Iterations  =   9
                                  Total H  = 1.110124e+02
                                  Total O  = 5.550622e+01

----------------------------Distribution of species----------------------------

                                               Log       Log       Log    mole V
   Species          Molality    Activity  Molality  Activity     Gamma   cm³/mol

   OH-             1.369e-07   9.389e-08    -6.864    -7.027    -0.164     -3.38
   H+              1.356e-07   1.069e-07    -6.868    -6.971    -0.104      0.00
   H2O             5.551e+01   9.912e-01     1.744    -0.004     0.000     18.07
Cl            2.584e-01
   Cl-             2.584e-01   1.800e-01    -0.588    -0.745    -0.157     18.51
H(0)          0.000e+00
   H2              0.000e+00   0.000e+00   -40.085   -40.059     0.026     28.61
Na            2.584e-01
   Na+             2.584e-01   1.902e-01    -0.588    -0.721    -0.133     -0.86
   NaOH            1.683e-18   1.786e-18   -17.774   -17.748     0.026     (0)  
O(0)          1.014e-12
   O2              5.071e-13   5.382e-13   -12.295   -12.269     0.026     30.40

------------------------------Saturation indices-------------------------------

  Phase               SI** log IAP   log K(298 K,   1 atm)

  H2(g)           -36.96    -40.06   -3.10  H2
  H2O(g)           -1.51     -0.00    1.50  H2O
  Halite           -3.04     -1.47    1.57  NaCl
  O2(g)            -9.38    -12.27   -2.89  O2

**For a gas, SI = log10(fugacity). Fugacity = pressure * phi / 1 atm.
  For ideal gases, phi = 1.

Reaction step 4.

Using solution 0.	
Using reaction 1.	

Reaction 1.	

	  3.457e-01 moles of the following reaction have been added:

	                 Relative
	Reactant            moles

	NaCl                 1.00000

	                 Relative
	Element             moles
	Cl                   1.00000
	Na                   1.00000

-----------------------------Solution composition------------------------------

	Elements           Molality       Moles

	Cl                3.457e-01   3.457e-01
	Na                3.457e-01   3.457e-01

----------------------------Description of solution----------------------------

                                       pH  =   6.967      Charge balance
                                       pe  =  11.485      Adjusted to redox equilibrium
       Specific Conductance (µS/cm, 25°C)  = 35067
                          Density (g/cm³)  =   1.01098
                               Volume (L)  =   1.00912
                        Activity of water  =   0.988
                           Ionic strength  =   3.457e-01
                       Mass of water (kg)  =   1.000e+00
                 Total alkalinity (eq/kg)  =   1.217e-09
                    Total carbon (mol/kg)  =   0.000e+00
                       Total CO2 (mol/kg)  =   0.000e+00
                         Temperature (°C)  =  25.00
                  Electrical balance (eq)  =  -2.318e-09
 Percent error, 100*(Cat-|An|)/(Cat+|An|)  =  -0.00
                               Iterations  =   9
                                  Total H  = 1.110124e+02
                                  Total O  = 5.550622e+01

----------------------------Distribution of species----------------------------

                                               Log       Log       Log    mole V
   Species          Molality    Activity  Molality  Activity     Gamma   cm³/mol

   OH-             1.400e-07   9.274e-08    -6.854    -7.033    -0.179     -3.21
   H+              1.388e-07   1.079e-07    -6.858    -6.967    -0.110      0.00
   H2O             5.551e+01   9.882e-01     1.744    -0.005     0.000     18.07
Cl            3.457e-01
   Cl-             3.457e-01   2.335e-01    -0.461    -0.632    -0.170     18.58
H(0)          0.000e+00
   H2              0.000e+00   0.000e+00   -40.090   -40.055     0.035     28.61
Na            3.457e-01
   Na+             3.457e-01   2.508e-01    -0.461    -0.601    -0.139     -0.77
   NaOH            2.148e-18   2.326e-18   -17.668   -17.633     0.035     (0)  
O(0)          9.697e-13
   O2              4.849e-13   5.250e-13   -12.314   -12.280     0.035     30.40

------------------------------Saturation indices-------------------------------

  Phase               SI** log IAP   log K(298 K,   1 atm)

  H2(g)           -36.95    -40.06   -3.10  H2
  H2O(g)           -1.51     -0.01    1.50  H2O
  Halite           -2.80     -1.23    1.57  NaCl
  O2(g)            -9.39    -12.28   -2.89  O2

**For a gas, SI = log10(fugacity). Fugacity = pressure * phi / 1 atm.
  For ideal gases, phi = 1.

Reaction step 5.

Using solution 0.	
Using reaction 1.	

Reaction 1.	

	  4.346e-01 moles of the following reaction have been added:

	                 Relative
	Reactant            moles

	NaCl                 1.00000

	                 Relative
	Element             moles
	Cl                   1.00000
	Na                   1.00000

-----------------------------Solution composition------------------------------

	Elements           Molality       Moles

	Cl                4.346e-01   4.346e-01
	Na                4.346e-01   4.346e-01

----------------------------Description of solution----------------------------

                                       pH  =   6.964      Charge balance
                                       pe  =  11.487      Adjusted to redox equilibrium
       Specific Conductance (µS/cm, 25°C)  = 42659
                          Density (g/cm³)  =   1.01447
                               Volume (L)  =   1.01077
                        Activity of water  =   0.985
                           Ionic strength  =   4.346e-01
                       Mass of water (kg)  =   1.000e+00
                 Total alkalinity (eq/kg)  =   1.217e-09
                    Total carbon (mol/kg)  =   0.000e+00
                       Total CO2 (mol/kg)  =   0.000e+00
                         Temperature (°C)  =  25.00
                  Electrical balance (eq)  =  -4.561e-09
 Percent error, 100*(Cat-|An|)/(Cat+|An|)  =  -0.00
                               Iterations  =   9
                                  Total H  = 1.110124e+02
                                  Total O  = 5.550622e+01

----------------------------Distribution of species----------------------------

                                               Log       Log       Log    mole V
   Species          Molality    Activity  Molality  Activity     Gamma   cm³/mol

   OH-             1.425e-07   9.175e-08    -6.846    -7.037    -0.191     -3.04
   H+              1.413e-07   1.087e-07    -6.850    -6.964    -0.114      0.00
   H2O             5.551e+01   9.852e-01     1.744    -0.006     0.000     18.07
Cl            4.346e-01
   Cl-             4.346e-01   2.866e-01    -0.362    -0.543    -0.181     18.65
H(0)          0.000e+00
   H2              0.000e+00   0.000e+00   -40.096   -40.053     0.043     28.61
Na            4.346e-01
   Na+             4.346e-01   3.128e-01    -0.362    -0.505    -0.143     -0.69
   NaOH            2.597e-18   2.870e-18   -17.586   -17.542     0.043     (0)  
O(0)          9.330e-13
   O2              4.665e-13   5.156e-13   -12.331   -12.288     0.043     30.40

------------------------------Saturation indices-------------------------------

  Phase               SI** log IAP   log K(298 K,   1 atm)

  H2(g)           -36.95    -40.05   -3.10  H2
  H2O(g)           -1.51     -0.01    1.50  H2O
  Halite           -2.62     -1.05    1.57  NaCl
  O2(g)            -9.40    -12.29   -2.89  O2

**For a gas, SI = log10(fugacity). Fugacity = pressure * phi / 1 atm.
  For ideal gases, phi = 1.

Reaction step 6.

Using solution 0.	
Using reaction 1.	

Reaction 1.	

	  5.236e-01 moles of the following reaction have been added:

	                 Relative
	Reactant            moles

	NaCl                 1.00000

	                 Relative
	Element             moles
	Cl                   1.00000
	Na                   1.00000

-----------------------------Solution composition------------------------------

	Elements           Molality       Moles

	Cl                5.236e-01   5.236e-01
	Na                5.236e-01   5.236e-01

----------------------------Description of solution----------------------------

                                       pH  =   6.961      Charge balance
                                       pe  =  11.381      Adjusted to redox equilibrium
       Specific Conductance (µS/cm, 25°C)  = 49688
                          Density (g/cm³)  =   1.01794
                               Volume (L)  =   1.01244
                        Activity of water  =   0.982
                           Ionic strength  =   5.236e-01
                       Mass of water (kg)  =   1.000e+00
                 Total alkalinity (eq/kg)  =   1.217e-09
                    Total carbon (mol/kg)  =   0.000e+00
                       Total CO2 (mol/kg)  =   0.000e+00
                         Temperature (°C)  =  25.00
                  Electrical balance (eq)  =  -1.217e-09
 Percent error, 100*(Cat-|An|)/(Cat+|An|)  =  -0.00
                               Iterations  =  10
                                  Total H  = 1.110124e+02
                                  Total O  = 5.550622e+01

----------------------------Distribution of species----------------------------

                                               Log       Log       Log    mole V
   Species          Molality    Activity  Molality  Activity     Gamma   cm³/mol

   OH-             1.446e-07   9.091e-08    -6.840    -7.041    -0.201     -2.88
   H+              1.434e-07   1.094e-07    -6.844    -6.961    -0.118      0.00
   H2O             5.551e+01   9.822e-01     1.744    -0.008     0.000     18.07
Cl            5.236e-01
   Cl-             5.236e-01   3.387e-01    -0.281    -0.470    -0.189     18.70
H(0)          2.599e-40
   H2              1.300e-40   1.466e-40   -39.886   -39.834     0.052     28.61
Na            5.236e-01
   Na+             5.236e-01   3.755e-01    -0.281    -0.425    -0.144     -0.61
   NaOH            3.026e-18   3.414e-18   -17.519   -17.467     0.052     (0)  
O(0)          3.317e-13
   O2              1.659e-13   1.871e-13   -12.780   -12.728     0.052     30.40

------------------------------Saturation indices-------------------------------

  Phase               SI** log IAP   log K(298 K,   1 atm)

  H2(g)           -36.73    -39.83   -3.10  H2
  H2O(g)           -1.51     -0.01    1.50  H2O
  Halite           -2.47     -0.90    1.57  NaCl
  O2(g)            -9.84    -12.73   -2.89  O2

**For a gas, SI = log10(fugacity). Fugacity = pressure * phi / 1 atm.
  For ideal gases, phi = 1.

Reaction step 7.

Using solution 0.	
Using reaction 1.	

Reaction 1.	

	  6.126e-01 moles of the following reaction have been added:

	                 Relative
	Reactant            moles

	NaCl                 1.00000

	                 Relative
	Element             moles
	Cl                   1.00000
	Na                   1.00000

-----------------------------Solution composition------------------------------

	Elements           Molality       Moles

	Cl                6.126e-01   6.126e-01
	Na                6.126e-01   6.126e-01

----------------------------Description of solution----------------------------

                                       pH  =   6.959      Charge balance
                                       pe  =  11.382      Adjusted to redox equilibrium
       Specific Conductance (µS/cm, 25°C)  = 56383
                          Density (g/cm³)  =   1.02138
                               Volume (L)  =   1.01412
                        Activity of water  =   0.979
                           Ionic strength  =   6.126e-01
                       Mass of water (kg)  =   1.000e+00
                 Total alkalinity (eq/kg)  =   1.217e-09
                    Total carbon (mol/kg)  =   0.000e+00
                       Total CO2 (mol/kg)  =   0.000e+00
                         Temperature (°C)  =  25.00
                  Electrical balance (eq)  =  -1.217e-09
 Percent error, 100*(Cat-|An|)/(Cat+|An|)  =  -0.00
                               Iterations  =  10
                                  Total H  = 1.110124e+02
                                  Total O  = 5.550622e+01

----------------------------Distribution of species----------------------------

                                               Log       Log       Log    mole V
   Species          Molality    Activity  Molality  Activity     Gamma   cm³/mol

   OH-             1.463e-07   9.017e-08    -6.835    -7.045    -0.210     -2.73
   H+              1.451e-07   1.099e-07    -6.838    -6.959    -0.120      0.00
   H2O             5.551e+01   9.792e-01     1.744    -0.009     0.000     18.07
Cl            6.126e-01
   Cl-             6.126e-01   3.900e-01    -0.213    -0.409    -0.196     18.76
H(0)          2.553e-40
   H2              1.276e-40   1.470e-40   -39.894   -39.833     0.061     28.61
Na            6.126e-01
   Na+             6.126e-01   4.391e-01    -0.213    -0.357    -0.145     -0.55
   NaOH            3.438e-18   3.959e-18   -17.464   -17.402     0.061     (0)  
O(0)          3.214e-13
   O2              1.607e-13   1.850e-13   -12.794   -12.733     0.061     30.40

------------------------------Saturation indices-------------------------------

  Phase               SI** log IAP   log K(298 K,   1 atm)

  H2(g)           -36.73    -39.83   -3.10  H2
  H2O(g)           -1.51     -0.01    1.50  H2O
  Halite           -2.34     -0.77    1.57  NaCl
  O2(g)            -9.84    -12.73   -2.89  O2

**For a gas, SI = log10(fugacity). Fugacity = pressure * phi / 1 atm.
  For ideal gases, phi = 1.

Reaction step 8.

Using solution 0.	
Using reaction 1.	

Reaction 1.	

	  6.845e-01 moles of the following reaction have been added:

	                 Relative
	Reactant            moles

	NaCl                 1.00000

	                 Relative
	Element             moles
	Cl                   1.00000
	Na                   1.00000

-----------------------------Solution composition------------------------------

	Elements           Molality       Moles

	Cl                6.845e-01   6.845e-01
	Na                6.845e-01   6.845e-01

----------------------------Description of solution----------------------------

                                       pH  =   6.957      Charge balance
                                       pe  =  11.387      Adjusted to redox equilibrium
       Specific Conductance (µS/cm, 25°C)  = 61588
                          Density (g/cm³)  =   1.02414
                               Volume (L)  =   1.01549
                        Activity of water  =   0.977
                           Ionic strength  =   6.845e-01
                       Mass of water (kg)  =   1.000e+00
                 Total alkalinity (eq/kg)  =   1.217e-09
                    Total carbon (mol/kg)  =   0.000e+00
                       Total CO2 (mol/kg)  =   0.000e+00
                         Temperature (°C)  =  25.00
                  Electrical balance (eq)  =  -1.469e-09
 Percent error, 100*(Cat-|An|)/(Cat+|An|)  =  -0.00
                               Iterations  =  10
                                  Total H  = 1.110124e+02
                                  Total O  = 5.550622e+01

----------------------------Distribution of species----------------------------

                                               Log       Log       Log    mole V
   Species          Molality    Activity  Molality  Activity     Gamma   cm³/mol

   OH-             1.475e-07   8.962e-08    -6.831    -7.048    -0.216     -2.61
   H+              1.462e-07   1.103e-07    -6.835    -6.957    -0.122      0.00
   H2O             5.551e+01   9.767e-01     1.744    -0.010     0.000     18.07
Cl            6.845e-01
   Cl-             6.845e-01   4.311e-01    -0.165    -0.365    -0.201     18.80
H(0)          2.478e-40
   H2              1.239e-40   1.450e-40   -39.907   -39.838     0.068     28.61
Na            6.845e-01
   Na+             6.845e-01   4.913e-01    -0.165    -0.309    -0.144     -0.50
   NaOH            3.761e-18   4.403e-18   -17.425   -17.356     0.068     (0)  
O(0)          3.229e-13
   O2              1.615e-13   1.890e-13   -12.792   -12.723     0.068     30.40

------------------------------Saturation indices-------------------------------

  Phase               SI** log IAP   log K(298 K,   1 atm)

  H2(g)           -36.74    -39.84   -3.10  H2
  H2O(g)           -1.51     -0.01    1.50  H2O
  Halite           -2.24     -0.67    1.57  NaCl
  O2(g)            -9.83    -12.72   -2.89  O2

**For a gas, SI = log10(fugacity). Fugacity = pressure * phi / 1 atm.
  For ideal gases, phi = 1.

Reaction step 9.

Using solution 0.	
Using reaction 1.	

Reaction 1.	

	  8.658e-01 moles of the following reaction have been added:

	                 Relative
	Reactant            moles

	NaCl                 1.00000

	                 Relative
	Element             moles
	Cl                   1.00000
	Na                   1.00000

-----------------------------Solution composition------------------------------

	Elements           Molality       Moles

	Cl                8.658e-01   8.658e-01
	Na                8.658e-01   8.658e-01

----------------------------Description of solution----------------------------

                                       pH  =   6.954      Charge balance
                                       pe  =  11.389      Adjusted to redox equilibrium
       Specific Conductance (µS/cm, 25°C)  = 74101
                          Density (g/cm³)  =   1.03103
                               Volume (L)  =   1.01899
                        Activity of water  =   0.971
                           Ionic strength  =   8.658e-01
                       Mass of water (kg)  =   1.000e+00
                 Total alkalinity (eq/kg)  =   1.217e-09
                    Total carbon (mol/kg)  =   0.000e+00
                       Total CO2 (mol/kg)  =   0.000e+00
                         Temperature (°C)  =  25.00
                  Electrical balance (eq)  =  -1.218e-09
 Percent error, 100*(Cat-|An|)/(Cat+|An|)  =  -0.00
                               Iterations  =  10
                                  Total H  = 1.110124e+02
                                  Total O  = 5.550622e+01

----------------------------Distribution of species----------------------------

                                               Log       Log       Log    mole V
   Species          Molality    Activity  Molality  Activity     Gamma   cm³/mol

   OH-             1.499e-07   8.841e-08    -6.824    -7.053    -0.229     -2.32
   H+              1.487e-07   1.111e-07    -6.828    -6.954    -0.127      0.00
   H2O             5.551e+01   9.706e-01     1.744    -0.013     0.000     18.07
Cl            8.658e-01
   Cl-             8.658e-01   5.336e-01    -0.063    -0.273    -0.210     18.89
H(0)          2.386e-40
   H2              1.193e-40   1.456e-40   -39.923   -39.837     0.087     28.61
Na            8.658e-01
   Na+             8.658e-01   6.270e-01    -0.063    -0.203    -0.140     -0.38
   NaOH            4.541e-18   5.543e-18   -17.343   -17.256     0.087     (0)  
O(0)          3.035e-13
   O2              1.517e-13   1.852e-13   -12.819   -12.732     0.087     30.40

------------------------------Saturation indices-------------------------------

  Phase               SI** log IAP   log K(298 K,   1 atm)

  H2(g)           -36.74    -39.84   -3.10  H2
  H2O(g)           -1.52     -0.01    1.50  H2O
  Halite           -2.05     -0.48    1.57  NaCl
  O2(g)            -9.84    -12.73   -2.89  O2

**For a gas, SI = log10(fugacity). Fugacity = pressure * phi / 1 atm.
  For ideal gases, phi = 1.

Reaction step 10.

Using solution 0.	
Using reaction 1.	

Reaction 1.	

	  1.032e+00 moles of the following reaction have been added:

	                 Relative
	Reactant            moles

	NaCl                 1.00000

	                 Relative
	Element             moles
	Cl                   1.00000
	Na                   1.00000

-----------------------------Solution composition------------------------------

	Elements           Molality       Moles

	Cl                1.032e+00   1.032e+00
	Na                1.032e+00   1.032e+00

----------------------------Description of solution----------------------------

                                       pH  =   6.952      Charge balance
                                       pe  =  11.391      Adjusted to redox equilibrium
       Specific Conductance (µS/cm, 25°C)  = 84988
                          Density (g/cm³)  =   1.03725
                               Volume (L)  =   1.02223
                        Activity of water  =   0.965
                           Ionic strength  =   1.032e+00
                       Mass of water (kg)  =   1.000e+00
                 Total alkalinity (eq/kg)  =   1.217e-09
                    Total carbon (mol/kg)  =   0.000e+00
                       Total CO2 (mol/kg)  =   0.000e+00
                         Temperature (°C)  =  25.00
                  Electrical balance (eq)  =  -1.217e-09
 Percent error, 100*(Cat-|An|)/(Cat+|An|)  =  -0.00
                               Iterations  =  10
                                  Total H  = 1.110124e+02
                                  Total O  = 5.550622e+01

----------------------------Distribution of species----------------------------

                                               Log       Log       Log    mole V
   Species          Molality    Activity  Molality  Activity     Gamma   cm³/mol

   OH-             1.516e-07   8.747e-08    -6.819    -7.058    -0.239     -2.06
   H+              1.504e-07   1.117e-07    -6.823    -6.952    -0.129      0.00
   H2O             5.551e+01   9.649e-01     1.744    -0.016     0.000     18.07
Cl            1.032e+00
   Cl-             1.032e+00   6.264e-01     0.014    -0.203    -0.217     18.96
H(0)          2.302e-40
   H2              1.151e-40   1.460e-40   -39.939   -39.836     0.103     28.61
Na            1.032e+00
   Na+             1.032e+00   7.565e-01     0.014    -0.121    -0.135     -0.29
   NaOH            5.218e-18   6.617e-18   -17.283   -17.179     0.103     (0)  
O(0)          2.872e-13
   O2              1.436e-13   1.821e-13   -12.843   -12.740     0.103     30.40

------------------------------Saturation indices-------------------------------

  Phase               SI** log IAP   log K(298 K,   1 atm)

  H2(g)           -36.73    -39.84   -3.10  H2
  H2O(g)           -1.52     -0.02    1.50  H2O
  Halite           -1.89     -0.32    1.57  NaCl
  O2(g)            -9.85    -12.74   -2.89  O2

**For a gas, SI = log10(fugacity). Fugacity = pressure * phi / 1 atm.
  For ideal gases, phi = 1.

Reaction step 11.

Using solution 0.	
Using reaction 1.	

Reaction 1.	

	  1.369e+00 moles of the following reaction have been added:

	                 Relative
	Reactant            moles

	NaCl                 1.00000

	                 Relative
	Element             moles
	Cl                   1.00000
	Na                   1.00000

-----------------------------Solution composition------------------------------

	Elements           Molality       Moles

	Cl                1.369e+00   1.369e+00
	Na                1.369e+00   1.369e+00

----------------------------Description of solution----------------------------

                                       pH  =   6.949      Charge balance
                                       pe  =  11.499      Adjusted to redox equilibrium
       Specific Conductance (µS/cm, 25°C)  = 106270
                          Density (g/cm³)  =   1.04964
                               Volume (L)  =   1.02893
                        Activity of water  =   0.953
                           Ionic strength  =   1.369e+00
                       Mass of water (kg)  =   1.000e+00
                 Total alkalinity (eq/kg)  =   1.217e-09
                    Total carbon (mol/kg)  =   0.000e+00
                       Total CO2 (mol/kg)  =   0.000e+00
                         Temperature (°C)  =  25.00
                  Electrical balance (eq)  =  -1.217e-09
 Percent error, 100*(Cat-|An|)/(Cat+|An|)  =  -0.00
                               Iterations  =   9
                                  Total H  = 1.110124e+02
                                  Total O  = 5.550622e+01

----------------------------Distribution of species----------------------------

                                               Log       Log       Log    mole V
   Species          Molality    Activity  Molality  Activity     Gamma   cm³/mol

   OH-             1.542e-07   8.584e-08    -6.812    -7.066    -0.254     -1.54
   H+              1.530e-07   1.124e-07    -6.815    -6.949    -0.134      0.00
   H2O             5.551e+01   9.535e-01     1.744    -0.021     0.000     18.07
Cl            1.369e+00
   Cl-             1.369e+00   8.138e-01     0.136    -0.089    -0.226     19.09
H(0)          0.000e+00
   H2              0.000e+00   0.000e+00   -40.182   -40.046     0.137     28.61
Na            1.369e+00
   Na+             1.369e+00   1.038e+00     0.136     0.016    -0.120     -0.12
   NaOH            6.502e-18   8.911e-18   -17.187   -17.050     0.137     (0)  
O(0)          6.820e-13
   O2              3.410e-13   4.673e-13   -12.467   -12.330     0.137     30.40

------------------------------Saturation indices-------------------------------

  Phase               SI** log IAP   log K(298 K,   1 atm)

  H2(g)           -36.94    -40.05   -3.10  H2
  H2O(g)           -1.52     -0.02    1.50  H2O
  Halite           -1.64     -0.07    1.57  NaCl
  O2(g)            -9.44    -12.33   -2.89  O2

**For a gas, SI = log10(fugacity). Fugacity = pressure * phi / 1 atm.
  For ideal gases, phi = 1.

Reaction step 12.

Using solution 0.	
Using reaction 1.	

Reaction 1.	

	  1.677e+00 moles of the following reaction have been added:

	                 Relative
	Reactant            moles

	NaCl                 1.00000

	                 Relative
	Element             moles
	Cl                   1.00000
	Na                   1.00000

-----------------------------Solution composition------------------------------

	Elements           Molality       Moles

	Cl                1.677e+00   1.677e+00
	Na                1.677e+00   1.677e+00

----------------------------Description of solution----------------------------

                                       pH  =   6.948      Charge balance
                                       pe  =  11.498      Adjusted to redox equilibrium
       Specific Conductance (µS/cm, 25°C)  = 125632
                          Density (g/cm³)  =   1.06070
                               Volume (L)  =   1.03517
                        Activity of water  =   0.943
                           Ionic strength  =   1.677e+00
                       Mass of water (kg)  =   1.000e+00
                 Total alkalinity (eq/kg)  =   1.217e-09
                    Total carbon (mol/kg)  =   0.000e+00
                       Total CO2 (mol/kg)  =   0.000e+00
                         Temperature (°C)  =  25.00
                  Electrical balance (eq)  =  -1.209e-09
 Percent error, 100*(Cat-|An|)/(Cat+|An|)  =  -0.00
                               Iterations  =   9
                                  Total H  = 1.110124e+02
                                  Total O  = 5.550622e+01

----------------------------Distribution of species----------------------------

                                               Log       Log       Log    mole V
   Species          Molality    Activity  Molality  Activity     Gamma   cm³/mol

   OH-             1.558e-07   8.458e-08    -6.807    -7.073    -0.265     -1.09
   H+              1.546e-07   1.128e-07    -6.811    -6.948    -0.137      0.00
   H2O             5.551e+01   9.430e-01     1.744    -0.025     0.000     18.07
Cl            1.677e+00
   Cl-             1.677e+00   9.850e-01     0.225    -0.007    -0.231     19.19
H(0)          0.000e+00
   H2              0.000e+00   0.000e+00   -40.209   -40.042     0.168     28.61
Na            1.677e+00
   Na+             1.677e+00   1.320e+00     0.225     0.121    -0.104      0.01
   NaOH            7.589e-18   1.117e-17   -17.120   -16.952     0.168     (0)  
O(0)          6.109e-13
   O2              3.054e-13   4.494e-13   -12.515   -12.347     0.168     30.40

------------------------------Saturation indices-------------------------------

  Phase               SI** log IAP   log K(298 K,   1 atm)

  H2(g)           -36.94    -40.04   -3.10  H2
  H2O(g)           -1.53     -0.03    1.50  H2O
  Halite           -1.46      0.11    1.57  NaCl
  O2(g)            -9.46    -12.35   -2.89  O2

**For a gas, SI = log10(fugacity). Fugacity = pressure * phi / 1 atm.
  For ideal gases, phi = 1.

------------------
End of simulation.
------------------

------------------------------------
Reading input data for simulation 4.
------------------------------------

	USE solution 0
	REACTION 1
		CaCl2
	4.50E-02
	9.10E-02
	1.37E-01
	1.83E-01
	2.30E-01
	2.77E-01
	3.24E-01
	3.72E-01
	4.69E-01
	5.67E-01
	6.67E-01
	8.20E-01
	USER_GRAPH 1
	    -headings               CaCl2_measured CaCl2_calculated
	    -start
	10 data 8100, 15700, 22700, 29400, 36100, 42600, 48900, 55100, 67000, 78300, 88700, 103000
	20 dim d(12)
	25 restore 10
	40 for i = 1 to 12
	42   read d(i)
	50 next i
	60 j = GET(3) + 1
	70 plot_xy rxn, d(j), symbol = Square, line_w = 0, color = Blue
	80 plot_xy rxn, SC,   symbol = None, line_w = 1, color = Blue
	90 PUT(j, 3)
	    -end
	END
-----------------------------------------
Beginning of batch-reaction calculations.
-----------------------------------------

Reaction step 1.

Using solution 0.	
Using reaction 1.	

Reaction 1.	

	  4.500e-02 moles of the following reaction have been added:

	                 Relative
	Reactant            moles

	CaCl2                1.00000

	                 Relative
	Element             moles
	Ca                   1.00000
	Cl                   2.00000

-----------------------------Solution composition------------------------------

	Elements           Molality       Moles

	Ca                4.500e-02   4.500e-02
	Cl                9.000e-02   9.000e-02

----------------------------Description of solution----------------------------

                                       pH  =   6.929      Charge balance
                                       pe  =  11.396      Adjusted to redox equilibrium
       Specific Conductance (µS/cm, 25°C)  = 9219
                          Density (g/cm³)  =   1.00115
                               Volume (L)  =   1.00384
                        Activity of water  =   0.998
                           Ionic strength  =   1.350e-01
                       Mass of water (kg)  =   1.000e+00
                 Total alkalinity (eq/kg)  =   1.217e-09
                    Total carbon (mol/kg)  =   0.000e+00
                       Total CO2 (mol/kg)  =   0.000e+00
                         Temperature (°C)  =  25.00
                  Electrical balance (eq)  =  -1.159e-09
 Percent error, 100*(Cat-|An|)/(Cat+|An|)  =  -0.00
                               Iterations  =  10
                                  Total H  = 1.110124e+02
                                  Total O  = 5.550622e+01

----------------------------Distribution of species----------------------------

                                               Log       Log       Log    mole V
   Species          Molality    Activity  Molality  Activity     Gamma   cm³/mol

   H+              1.447e-07   1.177e-07    -6.839    -6.929    -0.090      0.00
   OH-             1.162e-07   8.582e-08    -6.935    -7.066    -0.132     -3.64
   H2O             5.551e+01   9.977e-01     1.744    -0.001     0.000     18.07
Ca            4.500e-02
   Ca+2            4.500e-02   1.614e-02    -1.347    -1.792    -0.445    -17.34
   CaOH+           2.970e-08   2.272e-08    -7.527    -7.644    -0.116     (0)  
Cl            9.000e-02
   Cl-             9.000e-02   6.702e-02    -1.046    -1.174    -0.128     18.39
H(0)          3.071e-40
[...]
   OH-             7.665e-08   4.813e-08    -7.115    -7.318    -0.202     -2.87
   H2O             5.551e+01   9.919e-01     1.744    -0.004     0.000     18.07
H(0)          2.591e-39
   H2              1.295e-39   1.464e-39   -38.888   -38.835     0.053     28.61
Mg            3.456e-01
   MgSO4           2.131e-01   2.407e-01    -0.671    -0.618     0.053      5.84
   Mg+2            1.325e-01   3.862e-02    -0.878    -1.413    -0.535    -20.53
   MgOH+           9.319e-07   6.668e-07    -6.031    -6.176    -0.145     (0)  
O(0)          3.389e-15
   O2              1.694e-15   1.914e-15   -14.771   -14.718     0.053     30.40
S(-2)         0.000e+00
   H2S             0.000e+00   0.000e+00  -117.122  -117.069     0.053     37.16
   HS-             0.000e+00   0.000e+00  -117.128  -117.330    -0.202     21.26
   S-2             0.000e+00   0.000e+00  -122.891  -123.567    -0.676     (0)  
S(6)          3.456e-01
   MgSO4           2.131e-01   2.407e-01    -0.671    -0.618     0.053      5.84
   SO4-2           1.325e-01   2.659e-02    -0.878    -1.575    -0.698     17.14
   HSO4-           7.337e-07   5.392e-07    -6.134    -6.268    -0.134     40.89

------------------------------Saturation indices-------------------------------

  Phase               SI** log IAP   log K(298 K,   1 atm)

  H2(g)           -35.73    -38.83   -3.10  H2
  H2O(g)           -1.51     -0.00    1.50  H2O
  H2S(g)         -116.02   -124.01   -7.99  H2S
  O2(g)           -11.83    -14.72   -2.89  O2
  Sulfur          -86.27    -81.38    4.88  S

**For a gas, SI = log10(fugacity). Fugacity = pressure * phi / 1 atm.
  For ideal gases, phi = 1.

Reaction step 6.

Using solution 0.	
Using reaction 1.	

Reaction 1.	

	  4.362e-01 moles of the following reaction have been added:

	                 Relative
	Reactant            moles

	MgSO4                1.00000

	                 Relative
	Element             moles
	Mg                   1.00000
	O                    4.00000
	S                    1.00000

-----------------------------Solution composition------------------------------

	Elements           Molality       Moles

	Mg                4.362e-01   4.362e-01
	S                 4.362e-01   4.362e-01

----------------------------Description of solution----------------------------

                                       pH  =   6.659      Charge balance
                                       pe  =  11.242      Adjusted to redox equilibrium
       Specific Conductance (µS/cm, 25°C)  = 22534
                          Density (g/cm³)  =   1.04821
                               Volume (L)  =   1.00410
                        Activity of water  =   0.990
                           Ionic strength  =   6.380e-01
                       Mass of water (kg)  =   1.000e+00
                 Total alkalinity (eq/kg)  =   1.217e-09
                    Total carbon (mol/kg)  =   0.000e+00
                       Total CO2 (mol/kg)  =   0.000e+00
                         Temperature (°C)  =  25.00
                  Electrical balance (eq)  =  -1.218e-09
 Percent error, 100*(Cat-|An|)/(Cat+|An|)  =  -0.00
                               Iterations  =  14
                                  Total H  = 1.110124e+02
                                  Total O  = 5.725084e+01

----------------------------Distribution of species----------------------------

                                               Log       Log       Log    mole V
   Species          Molality    Activity  Molality  Activity     Gamma   cm³/mol

   H+              2.899e-07   2.193e-07    -6.538    -6.659    -0.121      0.00
   OH-             7.450e-08   4.569e-08    -7.128    -7.340    -0.212     -2.69
   H2O             5.551e+01   9.899e-01     1.744    -0.004     0.000     18.07
H(0)          1.927e-39
   H2              9.636e-40   1.116e-39   -39.016   -38.952     0.064     28.61
Mg            4.362e-01
   MgSO4           2.767e-01   3.204e-01    -0.558    -0.494     0.064      5.84
   Mg+2            1.595e-01   4.606e-02    -0.797    -1.337    -0.539    -20.44
   MgOH+           1.068e-06   7.550e-07    -5.972    -6.122    -0.151     (0)  
O(0)          5.663e-15
   O2              2.831e-15   3.279e-15   -14.548   -14.484     0.064     30.40
S(-2)         0.000e+00
   H2S             0.000e+00   0.000e+00  -117.509  -117.445     0.064     37.16
   HS-             0.000e+00   0.000e+00  -117.516  -117.728    -0.212     21.33
   S-2             0.000e+00   0.000e+00  -123.282  -123.987    -0.705     (0)  
S(6)          4.362e-01
   MgSO4           2.767e-01   3.204e-01    -0.558    -0.494     0.064      5.84
   SO4-2           1.595e-01   2.967e-02    -0.797    -1.528    -0.730     17.41
   HSO4-           8.512e-07   6.327e-07    -6.070    -6.199    -0.129     40.95

------------------------------Saturation indices-------------------------------

  Phase               SI** log IAP   log K(298 K,   1 atm)

  H2(g)           -35.85    -38.95   -3.10  H2
  H2O(g)           -1.51     -0.00    1.50  H2O
  H2S(g)         -116.39   -124.39   -7.99  H2S
  O2(g)           -11.59    -14.48   -2.89  O2
  Sulfur          -86.53    -81.64    4.88  S

**For a gas, SI = log10(fugacity). Fugacity = pressure * phi / 1 atm.
  For ideal gases, phi = 1.

Reaction step 7.

Using solution 0.	
Using reaction 1.	

Reaction 1.	

	  5.284e-01 moles of the following reaction have been added:

	                 Relative
	Reactant            moles

	MgSO4                1.00000

	                 Relative
	Element             moles
	Mg                   1.00000
	O                    4.00000
	S                    1.00000

-----------------------------Solution composition------------------------------

	Elements           Molality       Moles

	Mg                5.284e-01   5.284e-01
	S                 5.284e-01   5.284e-01

----------------------------Description of solution----------------------------

                                       pH  =   6.639      Charge balance
                                       pe  =  11.255      Adjusted to redox equilibrium
       Specific Conductance (µS/cm, 25°C)  = 25565
                          Density (g/cm³)  =   1.05888
                               Volume (L)  =   1.00446
                        Activity of water  =   0.988
                           Ionic strength  =   7.412e-01
                       Mass of water (kg)  =   1.000e+00
                 Total alkalinity (eq/kg)  =   1.217e-09
                    Total carbon (mol/kg)  =   0.000e+00
                       Total CO2 (mol/kg)  =   0.000e+00
                         Temperature (°C)  =  25.00
                  Electrical balance (eq)  =  -1.299e-09
 Percent error, 100*(Cat-|An|)/(Cat+|An|)  =  -0.00
                               Iterations  =  14
                                  Total H  = 1.110124e+02
                                  Total O  = 5.761970e+01

----------------------------Distribution of species----------------------------

                                               Log       Log       Log    mole V
   Species          Molality    Activity  Molality  Activity     Gamma   cm³/mol

   H+              3.055e-07   2.297e-07    -6.515    -6.639    -0.124      0.00
   OH-             7.235e-08   4.353e-08    -7.141    -7.361    -0.221     -2.52
   H2O             5.551e+01   9.879e-01     1.744    -0.005     0.000     18.07
H(0)          1.944e-39
   H2              9.720e-40   1.153e-39   -39.012   -38.938     0.074     28.61
Mg            5.284e-01
   MgSO4           3.431e-01   4.069e-01    -0.465    -0.391     0.074      5.84
   Mg+2            1.853e-01   5.356e-02    -0.732    -1.271    -0.539    -20.36
   MgOH+           1.194e-06   8.363e-07    -5.923    -6.078    -0.155     (0)  
O(0)          5.161e-15
   O2              2.580e-15   3.061e-15   -14.588   -14.514     0.074     30.40
S(-2)         0.000e+00
   H2S             0.000e+00   0.000e+00  -117.381  -117.307     0.074     37.16
   HS-             0.000e+00   0.000e+00  -117.389  -117.610    -0.221     21.39
   S-2             0.000e+00   0.000e+00  -123.161  -123.889    -0.728     (0)  
S(6)          5.284e-01
   MgSO4           3.431e-01   4.069e-01    -0.465    -0.391     0.074      5.84
   SO4-2           1.853e-01   3.241e-02    -0.732    -1.489    -0.757     17.64
   HSO4-           9.598e-07   7.238e-07    -6.018    -6.140    -0.123     41.00

------------------------------Saturation indices-------------------------------

  Phase               SI** log IAP   log K(298 K,   1 atm)

  H2(g)           -35.84    -38.94   -3.10  H2
  H2O(g)           -1.51     -0.01    1.50  H2O
  H2S(g)         -116.26   -124.25   -7.99  H2S
  O2(g)           -11.62    -14.51   -2.89  O2
  Sulfur          -86.40    -81.52    4.88  S

**For a gas, SI = log10(fugacity). Fugacity = pressure * phi / 1 atm.
  For ideal gases, phi = 1.

Reaction step 8.

Using solution 0.	
Using reaction 1.	

Reaction 1.	

	  6.231e-01 moles of the following reaction have been added:

	                 Relative
	Reactant            moles

	MgSO4                1.00000

	                 Relative
	Element             moles
	Mg                   1.00000
	O                    4.00000
	S                    1.00000

-----------------------------Solution composition------------------------------

	Elements           Molality       Moles

	Mg                6.231e-01   6.231e-01
	S                 6.231e-01   6.231e-01

----------------------------Description of solution----------------------------

                                       pH  =   6.620      Charge balance
                                       pe  =  11.158      Adjusted to redox equilibrium
       Specific Conductance (µS/cm, 25°C)  = 27485
                          Density (g/cm³)  =   1.06980
                               Volume (L)  =   1.00486
                        Activity of water  =   0.986
                           Ionic strength  =   8.415e-01
                       Mass of water (kg)  =   1.000e+00
                 Total alkalinity (eq/kg)  =   1.217e-09
                    Total carbon (mol/kg)  =   0.000e+00
                       Total CO2 (mol/kg)  =   0.000e+00
                         Temperature (°C)  =  25.00
                  Electrical balance (eq)  =  -7.343e-10
 Percent error, 100*(Cat-|An|)/(Cat+|An|)  =  -0.00
                               Iterations  =  18
                                  Total H  = 1.110124e+02
                                  Total O  = 5.799853e+01

----------------------------Distribution of species----------------------------

                                               Log       Log       Log    mole V
   Species          Molality    Activity  Molality  Activity     Gamma   cm³/mol

   H+              3.209e-07   2.401e-07    -6.494    -6.620    -0.126      0.00
   OH-             7.021e-08   4.156e-08    -7.154    -7.381    -0.228     -2.35
   H2O             5.551e+01   9.858e-01     1.744    -0.006     0.000     18.07
H(0)          3.246e-39
   H2              1.623e-39   1.970e-39   -38.790   -38.705     0.084     28.61
Mg            6.231e-01
   MgSO4           4.127e-01   5.009e-01    -0.384    -0.300     0.084      5.84
   Mg+2            2.104e-01   6.124e-02    -0.677    -1.213    -0.536    -20.29
   MgOH+           1.314e-06   9.130e-07    -5.881    -6.040    -0.158     (0)  
O(0)          1.720e-15
   O2              8.598e-16   1.044e-15   -15.066   -14.981     0.084     30.40
S(-2)         0.000e+00
   H2S             0.000e+00   0.000e+00  -116.386  -116.302     0.084     37.16
   HS-             0.000e+00   0.000e+00  -116.396  -116.624    -0.228     21.44
   S-2             0.000e+00   0.000e+00  -122.176  -122.922    -0.747     (0)  
S(6)          6.231e-01
   MgSO4           4.127e-01   5.009e-01    -0.384    -0.300     0.084      5.84
   SO4-2           2.104e-01   3.489e-02    -0.677    -1.457    -0.780     17.86
   HSO4-           1.062e-06   8.145e-07    -5.974    -6.089    -0.115     41.04

------------------------------Saturation indices-------------------------------

  Phase               SI** log IAP   log K(298 K,   1 atm)

  H2(g)           -35.60    -38.71   -3.10  H2
  H2O(g)           -1.51     -0.01    1.50  H2O
  H2S(g)         -115.25   -123.24   -7.99  H2S
  O2(g)           -12.09    -14.98   -2.89  O2
  Sulfur          -85.63    -80.75    4.88  S

**For a gas, SI = log10(fugacity). Fugacity = pressure * phi / 1 atm.
  For ideal gases, phi = 1.

Reaction step 9.

Using solution 0.	
Using reaction 1.	

Reaction 1.	

	  7.186e-01 moles of the following reaction have been added:

	                 Relative
	Reactant            moles

	MgSO4                1.00000

	                 Relative
	Element             moles
	Mg                   1.00000
	O                    4.00000
	S                    1.00000

-----------------------------Solution composition------------------------------

	Elements           Molality       Moles

	Mg                7.186e-01   7.186e-01
	S                 7.186e-01   7.186e-01

----------------------------Description of solution----------------------------

                                       pH  =   6.601      Charge balance
                                       pe  =  11.155      Adjusted to redox equilibrium
       Specific Conductance (µS/cm, 25°C)  = 29177
                          Density (g/cm³)  =   1.08080
                               Volume (L)  =   1.00528
                        Activity of water  =   0.984
                           Ionic strength  =   9.376e-01
                       Mass of water (kg)  =   1.000e+00
                 Total alkalinity (eq/kg)  =   1.217e-09
                    Total carbon (mol/kg)  =   0.000e+00
                       Total CO2 (mol/kg)  =   0.000e+00
                         Temperature (°C)  =  25.00
                  Electrical balance (eq)  =  -1.214e-09
 Percent error, 100*(Cat-|An|)/(Cat+|An|)  =  -0.00
                               Iterations  =  22
                                  Total H  = 1.110124e+02
                                  Total O  = 5.838069e+01

----------------------------Distribution of species----------------------------

                                               Log       Log       Log    mole V
   Species          Molality    Activity  Molality  Activity     Gamma   cm³/mol

   H+              3.360e-07   2.503e-07    -6.474    -6.601    -0.128      0.00
   OH-             6.813e-08   3.978e-08    -7.167    -7.400    -0.234     -2.20
   H2O             5.551e+01   9.838e-01     1.744    -0.007     0.000     18.07
H(0)          3.501e-39
   H2              1.751e-39   2.173e-39   -38.757   -38.663     0.094     28.61
Mg            7.186e-01
   MgSO4           4.842e-01   6.009e-01    -0.315    -0.221     0.094      5.84
   Mg+2            2.344e-01   6.902e-02    -0.630    -1.161    -0.531    -20.22
   MgOH+           1.427e-06   9.848e-07    -5.846    -6.007    -0.161     (0)  
O(0)          1.378e-15
   O2              6.889e-16   8.549e-16   -15.162   -15.068     0.094     30.40
S(-2)         0.000e+00
   H2S             0.000e+00   0.000e+00  -116.159  -116.065     0.094     37.16
   HS-             0.000e+00   0.000e+00  -116.172  -116.405    -0.234     21.49
   S-2             0.000e+00   0.000e+00  -121.959  -122.722    -0.763     (0)  
S(6)          7.186e-01
   MgSO4           4.842e-01   6.009e-01    -0.315    -0.221     0.094      5.84
   SO4-2           2.344e-01   3.714e-02    -0.630    -1.430    -0.800     18.05
   HSO4-           1.158e-06   9.039e-07    -5.936    -6.044    -0.107     41.08

------------------------------Saturation indices-------------------------------

  Phase               SI** log IAP   log K(298 K,   1 atm)

  H2(g)           -35.56    -38.66   -3.10  H2
  H2O(g)           -1.51     -0.01    1.50  H2O
  H2S(g)         -115.01   -123.01   -7.99  H2S
  O2(g)           -12.18    -15.07   -2.89  O2
  Sulfur          -85.43    -80.55    4.88  S

**For a gas, SI = log10(fugacity). Fugacity = pressure * phi / 1 atm.
  For ideal gases, phi = 1.

Reaction step 10.

Using solution 0.	
Using reaction 1.	

Reaction 1.	

	  9.163e-01 moles of the following reaction have been added:

	                 Relative
	Reactant            moles

	MgSO4                1.00000

	                 Relative
	Element             moles
	Mg                   1.00000
	O                    4.00000
	S                    1.00000

-----------------------------Solution composition------------------------------

	Elements           Molality       Moles

	Mg                9.163e-01   9.163e-01
	S                 9.163e-01   9.163e-01

----------------------------Description of solution----------------------------

                                       pH  =   6.567      Charge balance
                                       pe  =  -0.692      Adjusted to redox equilibrium
       Specific Conductance (µS/cm, 25°C)  = 32135
                          Density (g/cm³)  =   1.10347
                               Volume (L)  =   1.00619
                        Activity of water  =   0.980
                           Ionic strength  =   1.123e+00
                       Mass of water (kg)  =   1.000e+00
                 Total alkalinity (eq/kg)  =   1.217e-09
                    Total carbon (mol/kg)  =   0.000e+00
                       Total CO2 (mol/kg)  =   0.000e+00
                         Temperature (°C)  =  25.00
                  Electrical balance (eq)  =  -1.313e-09
 Percent error, 100*(Cat-|An|)/(Cat+|An|)  =  -0.00
                               Iterations  =  72
                                  Total H  = 1.110124e+02
                                  Total O  = 5.917158e+01

----------------------------Distribution of species----------------------------

                                               Log       Log       Log    mole V
   Species          Molality    Activity  Molality  Activity     Gamma   cm³/mol

   H+              3.663e-07   2.710e-07    -6.436    -6.567    -0.131      0.00
   OH-             6.411e-08   3.658e-08    -7.193    -7.437    -0.244     -1.92
   H2O             5.551e+01   9.797e-01     1.744    -0.009     0.000     18.07
H(0)          1.947e-15
   H2              9.733e-16   1.260e-15   -15.012   -14.899     0.112     28.61
Mg            9.163e-01
   MgSO4           6.357e-01   8.232e-01    -0.197    -0.085     0.112      5.84
   Mg+2            2.807e-01   8.532e-02    -0.552    -1.069    -0.517    -20.10
   MgOH+           1.640e-06   1.120e-06    -5.785    -5.951    -0.166     (0)  
O(0)          0.000e+00
   O2              0.000e+00   0.000e+00   -62.711   -62.599     0.112     30.40
S(-2)         1.948e-21
   H2S             9.949e-22   1.288e-21   -21.002   -20.890     0.112     37.16
   HS-             9.528e-22   5.437e-22   -21.021   -21.265    -0.244     21.57
   S-2             1.490e-27   2.423e-28   -26.827   -27.616    -0.789     (0)  
S(6)          9.163e-01
   MgSO4           6.357e-01   8.232e-01    -0.197    -0.085     0.112      5.84
   SO4-2           2.807e-01   4.116e-02    -0.552    -1.386    -0.834     18.39
   HSO4-           1.336e-06   1.085e-06    -5.874    -5.965    -0.091     41.15

------------------------------Saturation indices-------------------------------

  Phase               SI** log IAP   log K(298 K,   1 atm)

  H2(g)           -11.80    -14.90   -3.10  H2
  H2O(g)           -1.51     -0.01    1.50  H2O
  H2S(g)          -19.84    -27.83   -7.99  H2S
  O2(g)           -59.71    -62.60   -2.89  O2
  Sulfur          -14.02     -9.14    4.88  S

**For a gas, SI = log10(fugacity). Fugacity = pressure * phi / 1 atm.
  For ideal gases, phi = 1.

------------------
End of simulation.
------------------

------------------------------------
Reading input data for simulation 7.
------------------------------------

------------------------------
End of Run after 0.04 Seconds.
------------------------------

