   Input file: salt_sc
  Output file: salt_sc.out
Database file: ../database/phreeqc.dat

------------------
Reading data base.
------------------

	SOLUTION_MASTER_SPECIES
	SOLUTION_SPECIES
	PHASES
	EXCHANGE_MASTER_SPECIES
	EXCHANGE_SPECIES
	SURFACE_MASTER_SPECIES
	SURFACE_SPECIES
	RATES
	END
------------------------------------
Reading input data for simulation 1.
------------------------------------

	DATABASE ../database/phreeqc.dat
	PRINT
	 echo_input false
	SOLUTION_SPREAD
	 temp 20
	 units mol/L
	number	K	Cl	pH	density #     HB_SC
	1 	0.067	0.067	7 charge	1.0014 #     8200
	2 	0.134	0.134	7 charge	1.0045 #     15700
	3 	0.202	0.202	7 charge	1.0077 #     22700
	4 	0.270	0.270	7 charge	1.0109 #     29500
	5 	0.340	0.340	7 charge	1.0142 #     36500
	6 	0.409	0.409	7 charge	1.0173 #     43600
	7 	0.478	0.478	7 charge	1.0205 #     50600
	8 	0.549	0.549	7 charge	1.0238 #     57600
	9 	0.690	0.690	7 charge	1.0302 #     71900
	10	0.834	0.834	7 charge	1.0368 #     86200
	11	0.979	0.979	7 charge	1.0434 #     100000
	12	1.052	1.052	7 charge	1.0467 #     108000
	USER_GRAPH 
	  -headings KCl
	  -axis_titles "Handbook of Chemistry and Physics: SC / (mmho/cm)" "PHREEQC"
	  -axis_scale x_axis 0 120
	  -axis_scale y_axis 0 120
	  -initial_solutions true
	  10 DATA 8200, 15700, 22700, 29500, 36500, 43600, 50600, 57600, 71900, 86200, 100000, 108000
	  20 dim HB(12)
	  30 for i = 1 to cell_no 
	  40   READ HB(i)
	  50 next i
	  60 plot_xy HB(cell_no) / 1e3, SC / 1e3, line_width = 0
	END
-------------------------------------------
Beginning of initial solution calculations.
-------------------------------------------

Initial solution 1.	

-----------------------------Solution composition------------------------------

	Elements           Molality       Moles

	Cl                6.724e-02   6.724e-02
	K                 6.724e-02   6.724e-02

----------------------------Description of solution----------------------------

                                       pH  =   7.079      Charge balance
                                       pe  =   4.000    
       Specific Conductance (µS/cm, 20°C)  = 8029
                          Density (g/cmł)  =   1.00138
                               Volume (L)  =   1.00362
                        Viscosity (mPa s)  =   1.00084
                        Activity of water  =   0.998
                           Ionic strength  =   6.724e-02
                       Mass of water (kg)  =   1.000e+00
                 Total alkalinity (eq/kg)  =  -6.409e-18
                    Total carbon (mol/kg)  =   0.000e+00
                       Total CO2 (mol/kg)  =   0.000e+00
                         Temperature (°C)  =  20.00
                  Electrical balance (eq)  =   9.663e-16
 Percent error, 100*(Cat-|An|)/(Cat+|An|)  =   0.00
                               Iterations  =   4
                                  Total H  = 1.110124e+02
                                  Total O  = 5.550622e+01

----------------------------Distribution of species----------------------------

                                               Log       Log       Log    mole V
   Species          Molality    Activity  Molality  Activity     Gamma   cmł/mol

   H+              1.034e-07   8.333e-08    -6.985    -7.079    -0.094      0.00
   OH-             1.034e-07   8.197e-08    -6.985    -7.086    -0.101     (0)  
   H2O             5.551e+01   9.977e-01     1.744    -0.001     0.000     18.05
Cl            6.724e-02
   Cl-             6.724e-02   5.352e-02    -1.172    -1.271    -0.099     18.11
H(0)          1.018e-25
   H2              5.091e-26   5.171e-26   -25.293   -25.286     0.007     28.61
K             6.724e-02
   K+              6.724e-02   5.340e-02    -1.172    -1.272    -0.100      9.02
O(0)          0.000e+00
   O2              0.000e+00   0.000e+00   -43.457   -43.450     0.007     29.98

------------------------------Saturation indices-------------------------------

  Phase               SI** log IAP   log K(293 K,   1 atm)

  H2(g)           -22.20    -25.29   -3.09  H2
  H2O(g)           -1.63     -0.00    1.63  H2O
  O2(g)           -40.60    -43.45   -2.85  O2
  Sylvite          -3.42     -2.54    0.87  KCl

**For a gas, SI = log10(fugacity). Fugacity = pressure * phi / 1 atm.
  For ideal gases, phi = 1.

Initial solution 2.	

-----------------------------Solution composition------------------------------

	Elements           Molality       Moles

	Cl                1.347e-01   1.347e-01
	K                 1.347e-01   1.347e-01

----------------------------Description of solution----------------------------

                                       pH  =   7.076      Charge balance
                                       pe  =   4.000    
       Specific Conductance (µS/cm, 20°C)  = 15494
                          Density (g/cmł)  =   1.00454
                               Volume (L)  =   1.00548
                        Viscosity (mPa s)  =   0.99964
                        Activity of water  =   0.995
                           Ionic strength  =   1.347e-01
                       Mass of water (kg)  =   1.000e+00
                 Total alkalinity (eq/kg)  =   2.039e-19
                    Total carbon (mol/kg)  =   0.000e+00
                       Total CO2 (mol/kg)  =   0.000e+00
                         Temperature (°C)  =  20.00
                  Electrical balance (eq)  =   7.700e-14
 Percent error, 100*(Cat-|An|)/(Cat+|An|)  =   0.00
                               Iterations  =   4
                                  Total H  = 1.110124e+02
                                  Total O  = 5.550622e+01

----------------------------Distribution of species----------------------------

                                               Log       Log       Log    mole V
   Species          Molality    Activity  Molality  Activity     Gamma   cmł/mol

   OH-             1.096e-07   8.111e-08    -6.960    -7.091    -0.131     (0)  
   H+              1.096e-07   8.401e-08    -6.960    -7.076    -0.115      0.00
   H2O             5.551e+01   9.954e-01     1.744    -0.002     0.000     18.05
Cl            1.347e-01
   Cl-             1.347e-01   1.006e-01    -0.871    -0.997    -0.127     18.21
H(0)          1.019e-25
   H2              5.096e-26   5.257e-26   -25.293   -25.279     0.013     28.61
K             1.347e-01
   K+              1.347e-01   1.002e-01    -0.871    -0.999    -0.129      9.10
O(0)          0.000e+00
   O2              0.000e+00   0.000e+00   -43.480   -43.467     0.013     29.98

------------------------------Saturation indices-------------------------------

  Phase               SI** log IAP   log K(293 K,   1 atm)

  H2(g)           -22.19    -25.28   -3.09  H2
  H2O(g)           -1.64     -0.00    1.63  H2O
  O2(g)           -40.61    -43.47   -2.85  O2
  Sylvite          -2.87     -2.00    0.87  KCl

**For a gas, SI = log10(fugacity). Fugacity = pressure * phi / 1 atm.
  For ideal gases, phi = 1.

Initial solution 3.	

-----------------------------Solution composition------------------------------

	Elements           Molality       Moles

	Cl                2.035e-01   2.035e-01
	K                 2.035e-01   2.035e-01

----------------------------Description of solution----------------------------

                                       pH  =   7.072      Charge balance
                                       pe  =   4.000    
       Specific Conductance (µS/cm, 20°C)  = 22796
                          Density (g/cmł)  =   1.00773
                               Volume (L)  =   1.00739
                        Viscosity (mPa s)  =   0.99845
                        Activity of water  =   0.993
                           Ionic strength  =   2.035e-01
                       Mass of water (kg)  =   1.000e+00
                 Total alkalinity (eq/kg)  =  -4.697e-18
                    Total carbon (mol/kg)  =   0.000e+00
                       Total CO2 (mol/kg)  =   0.000e+00
                         Temperature (°C)  =  20.00
                  Electrical balance (eq)  =   7.581e-13
 Percent error, 100*(Cat-|An|)/(Cat+|An|)  =   0.00
                               Iterations  =   4
                                  Total H  = 1.110124e+02
                                  Total O  = 5.550622e+01

----------------------------Distribution of species----------------------------

                                               Log       Log       Log    mole V
   Species          Molality    Activity  Molality  Activity     Gamma   cmł/mol

   H+              1.134e-07   8.476e-08    -6.945    -7.072    -0.126      0.00
   OH-             1.134e-07   8.020e-08    -6.945    -7.096    -0.150     (0)  
   H2O             5.551e+01   9.931e-01     1.744    -0.003     0.000     18.05
Cl            2.035e-01
   Cl-             2.035e-01   1.457e-01    -0.691    -0.836    -0.145     18.28
H(0)          1.021e-25
   H2              5.106e-26   5.351e-26   -25.292   -25.272     0.020     28.61
K             2.035e-01
   K+              2.035e-01   1.450e-01    -0.691    -0.839    -0.147      9.17
O(0)          0.000e+00
   O2              0.000e+00   0.000e+00   -43.504   -43.484     0.020     29.98

------------------------------Saturation indices-------------------------------

  Phase               SI** log IAP   log K(293 K,   1 atm)

  H2(g)           -22.18    -25.27   -3.09  H2
  H2O(g)           -1.64     -0.00    1.63  H2O
  O2(g)           -40.63    -43.48   -2.85  O2
  Sylvite          -2.55     -1.68    0.87  KCl

**For a gas, SI = log10(fugacity). Fugacity = pressure * phi / 1 atm.
  For ideal gases, phi = 1.

Initial solution 4.	

-----------------------------Solution composition------------------------------

	Elements           Molality       Moles

	Cl                2.725e-01   2.725e-01
	K                 2.725e-01   2.725e-01

----------------------------Description of solution----------------------------

                                       pH  =   7.068      Charge balance
                                       pe  =   4.000    
       Specific Conductance (µS/cm, 20°C)  = 29915
                          Density (g/cmł)  =   1.01090
                               Volume (L)  =   1.00931
                        Viscosity (mPa s)  =   0.99732
                        Activity of water  =   0.991
                           Ionic strength  =   2.725e-01
                       Mass of water (kg)  =   1.000e+00
                 Total alkalinity (eq/kg)  =  -1.186e-17
                    Total carbon (mol/kg)  =   0.000e+00
                       Total CO2 (mol/kg)  =   0.000e+00
                         Temperature (°C)  =  20.00
                  Electrical balance (eq)  =   3.293e-12
 Percent error, 100*(Cat-|An|)/(Cat+|An|)  =   0.00
                               Iterations  =   4
                                  Total H  = 1.110124e+02
                                  Total O  = 5.550622e+01

----------------------------Distribution of species----------------------------

                                               Log       Log       Log    mole V
   Species          Molality    Activity  Molality  Activity     Gamma   cmł/mol

   H+              1.160e-07   8.555e-08    -6.936    -7.068    -0.132      0.00
   OH-             1.160e-07   7.928e-08    -6.936    -7.101    -0.165     (0)  
   H2O             5.551e+01   9.907e-01     1.744    -0.004     0.000     18.05
Cl            2.725e-01
   Cl-             2.725e-01   1.893e-01    -0.565    -0.723    -0.158     18.34
H(0)          1.024e-25
   H2              5.118e-26   5.450e-26   -25.291   -25.264     0.027     28.61
K             2.725e-01
   K+              2.725e-01   1.881e-01    -0.565    -0.726    -0.161      9.23
O(0)          0.000e+00
   O2              0.000e+00   0.000e+00   -43.529   -43.502     0.027     29.98

------------------------------Saturation indices-------------------------------

  Phase               SI** log IAP   log K(293 K,   1 atm)

  H2(g)           -22.18    -25.26   -3.09  H2
  H2O(g)           -1.64     -0.00    1.63  H2O
  O2(g)           -40.65    -43.50   -2.85  O2
  Sylvite          -2.32     -1.45    0.87  KCl

**For a gas, SI = log10(fugacity). Fugacity = pressure * phi / 1 atm.
  For ideal gases, phi = 1.

Initial solution 5.	

-----------------------------Solution composition------------------------------

	Elements           Molality       Moles

	Cl                3.438e-01   3.438e-01
	K                 3.438e-01   3.438e-01

----------------------------Description of solution----------------------------

                                       pH  =   7.064      Charge balance
                                       pe  =   4.000    
       Specific Conductance (µS/cm, 20°C)  = 37101
                          Density (g/cmł)  =   1.01416
                               Volume (L)  =   1.01132
                        Viscosity (mPa s)  =   0.99623
                        Activity of water  =   0.988
                           Ionic strength  =   3.438e-01
                       Mass of water (kg)  =   1.000e+00
                 Total alkalinity (eq/kg)  =  -2.170e-17
                    Total carbon (mol/kg)  =   0.000e+00
                       Total CO2 (mol/kg)  =   0.000e+00
                         Temperature (°C)  =  20.00
                  Electrical balance (eq)  =   9.624e-12
 Percent error, 100*(Cat-|An|)/(Cat+|An|)  =   0.00
                               Iterations  =   4
                                  Total H  = 1.110124e+02
                                  Total O  = 5.550622e+01

----------------------------Distribution of species----------------------------

                                               Log       Log       Log    mole V
   Species          Molality    Activity  Molality  Activity     Gamma   cmł/mol

   H+              1.178e-07   8.638e-08    -6.929    -7.064    -0.135      0.00
   OH-             1.178e-07   7.832e-08    -6.929    -7.106    -0.177     (0)  
   H2O             5.551e+01   9.883e-01     1.744    -0.005     0.000     18.05
Cl            3.438e-01
   Cl-             3.438e-01   2.331e-01    -0.464    -0.633    -0.169     18.40
H(0)          1.027e-25
   H2              5.134e-26   5.557e-26   -25.290   -25.255     0.034     28.61
K             3.438e-01
   K+              3.438e-01   2.313e-01    -0.464    -0.636    -0.172      9.28
O(0)          0.000e+00
   O2              0.000e+00   0.000e+00   -43.555   -43.521     0.034     29.98

------------------------------Saturation indices-------------------------------

  Phase               SI** log IAP   log K(293 K,   1 atm)

  H2(g)           -22.17    -25.26   -3.09  H2
  H2O(g)           -1.64     -0.01    1.63  H2O
  O2(g)           -40.67    -43.52   -2.85  O2
  Sylvite          -2.14     -1.27    0.87  KCl

**For a gas, SI = log10(fugacity). Fugacity = pressure * phi / 1 atm.
  For ideal gases, phi = 1.

Initial solution 6.	

-----------------------------Solution composition------------------------------

	Elements           Molality       Moles

	Cl                4.145e-01   4.145e-01
	K                 4.145e-01   4.145e-01

----------------------------Description of solution----------------------------

                                       pH  =   7.059      Charge balance
                                       pe  =   4.000    
       Specific Conductance (µS/cm, 20°C)  = 44080
                          Density (g/cmł)  =   1.01736
                               Volume (L)  =   1.01331
                        Viscosity (mPa s)  =   0.99522
                        Activity of water  =   0.986
                           Ionic strength  =   4.145e-01
                       Mass of water (kg)  =   1.000e+00
                 Total alkalinity (eq/kg)  =  -1.197e-11
                    Total carbon (mol/kg)  =   0.000e+00
                       Total CO2 (mol/kg)  =   0.000e+00
                         Temperature (°C)  =  20.00
                  Electrical balance (eq)  =   1.197e-11
 Percent error, 100*(Cat-|An|)/(Cat+|An|)  =   0.00
                               Iterations  =   2
                                  Total H  = 1.110124e+02
                                  Total O  = 5.550622e+01

----------------------------Distribution of species----------------------------

                                               Log       Log       Log    mole V
   Species          Molality    Activity  Molality  Activity     Gamma   cmł/mol

   H+              1.191e-07   8.724e-08    -6.924    -7.059    -0.135      0.00
   OH-             1.191e-07   7.737e-08    -6.924    -7.111    -0.187     (0)  
   H2O             5.551e+01   9.859e-01     1.744    -0.006     0.000     18.05
Cl            4.145e-01
   Cl-             4.145e-01   2.755e-01    -0.383    -0.560    -0.177     18.45
H(0)          1.030e-25
   H2              5.152e-26   5.667e-26   -25.288   -25.247     0.041     28.61
K             4.145e-01
   K+              4.145e-01   2.732e-01    -0.383    -0.564    -0.181      9.33
O(0)          0.000e+00
   O2              0.000e+00   0.000e+00   -43.582   -43.540     0.041     29.98

------------------------------Saturation indices-------------------------------

  Phase               SI** log IAP   log K(293 K,   1 atm)

  H2(g)           -22.16    -25.25   -3.09  H2
  H2O(g)           -1.64     -0.01    1.63  H2O
  O2(g)           -40.69    -43.54   -2.85  O2
  Sylvite          -2.00     -1.12    0.87  KCl

**For a gas, SI = log10(fugacity). Fugacity = pressure * phi / 1 atm.
  For ideal gases, phi = 1.

Initial solution 7.	

-----------------------------Solution composition------------------------------

	Elements           Molality       Moles

	Cl                4.853e-01   4.853e-01
	K                 4.853e-01   4.853e-01

----------------------------Description of solution----------------------------

                                       pH  =   7.055      Charge balance
                                       pe  =   4.000    
       Specific Conductance (µS/cm, 20°C)  = 50966
                          Density (g/cmł)  =   1.02054
                               Volume (L)  =   1.01533
                        Viscosity (mPa s)  =   0.99429
                        Activity of water  =   0.983
                           Ionic strength  =   4.853e-01
                       Mass of water (kg)  =   1.000e+00
                 Total alkalinity (eq/kg)  =  -1.657e-11
                    Total carbon (mol/kg)  =   0.000e+00
                       Total CO2 (mol/kg)  =   0.000e+00
                         Temperature (°C)  =  20.00
                  Electrical balance (eq)  =   1.657e-11
 Percent error, 100*(Cat-|An|)/(Cat+|An|)  =   0.00
                               Iterations  =   2
                                  Total H  = 1.110124e+02
                                  Total O  = 5.550622e+01

----------------------------Distribution of species----------------------------

                                               Log       Log       Log    mole V
   Species          Molality    Activity  Molality  Activity     Gamma   cmł/mol

   H+              1.200e-07   8.811e-08    -6.921    -7.055    -0.134      0.00
   OH-             1.200e-07   7.641e-08    -6.921    -7.117    -0.196     (0)  
   H2O             5.551e+01   9.835e-01     1.744    -0.007     0.000     18.05
Cl            4.853e-01
   Cl-             4.853e-01   3.174e-01    -0.314    -0.498    -0.184     18.50
H(0)          1.034e-25
   H2              5.170e-26   5.782e-26   -25.286   -25.238     0.049     28.61
K             4.853e-01
   K+              4.853e-01   3.144e-01    -0.314    -0.503    -0.189      9.38
O(0)          0.000e+00
   O2              0.000e+00   0.000e+00   -43.608   -43.560     0.049     29.98

------------------------------Saturation indices-------------------------------

  Phase               SI** log IAP   log K(293 K,   1 atm)

  H2(g)           -22.15    -25.24   -3.09  H2
  H2O(g)           -1.64     -0.01    1.63  H2O
  O2(g)           -40.71    -43.56   -2.85  O2
  Sylvite          -1.88     -1.00    0.87  KCl

**For a gas, SI = log10(fugacity). Fugacity = pressure * phi / 1 atm.
  For ideal gases, phi = 1.

Initial solution 8.	

-----------------------------Solution composition------------------------------

	Elements           Molality       Moles

	Cl                5.586e-01   5.586e-01
	K                 5.586e-01   5.586e-01

----------------------------Description of solution----------------------------

                                       pH  =   7.050      Charge balance
                                       pe  =   4.000    
       Specific Conductance (µS/cm, 20°C)  = 57973
                          Density (g/cmł)  =   1.02381
                               Volume (L)  =   1.01742
                        Viscosity (mPa s)  =   0.99340
                        Activity of water  =   0.981
                           Ionic strength  =   5.586e-01
                       Mass of water (kg)  =   1.000e+00
                 Total alkalinity (eq/kg)  =  -1.970e-15
                    Total carbon (mol/kg)  =   0.000e+00
                       Total CO2 (mol/kg)  =   0.000e+00
                         Temperature (°C)  =  20.00
                  Electrical balance (eq)  =   1.791e-15
 Percent error, 100*(Cat-|An|)/(Cat+|An|)  =   0.00
                               Iterations  =   3
                                  Total H  = 1.110124e+02
                                  Total O  = 5.550622e+01

----------------------------Distribution of species----------------------------

                                               Log       Log       Log    mole V
   Species          Molality    Activity  Molality  Activity     Gamma   cmł/mol

   H+              1.205e-07   8.903e-08    -6.919    -7.050    -0.132      0.00
   OH-             1.205e-07   7.543e-08    -6.919    -7.122    -0.204     (0)  
   H2O             5.551e+01   9.810e-01     1.744    -0.008     0.000     18.05
Cl            5.586e-01
   Cl-             5.586e-01   3.601e-01    -0.253    -0.444    -0.191     18.54
H(0)          1.038e-25
   H2              5.190e-26   5.902e-26   -25.285   -25.229     0.056     28.61
K             5.586e-01
   K+              5.586e-01   3.564e-01    -0.253    -0.448    -0.195      9.43
O(0)          0.000e+00
   O2              0.000e+00   0.000e+00   -43.636   -43.580     0.056     29.98

------------------------------Saturation indices-------------------------------

  Phase               SI** log IAP   log K(293 K,   1 atm)

  H2(g)           -22.14    -25.23   -3.09  H2
  H2O(g)           -1.64     -0.01    1.63  H2O
  O2(g)           -40.73    -43.58   -2.85  O2
  Sylvite          -1.77     -0.89    0.87  KCl

**For a gas, SI = log10(fugacity). Fugacity = pressure * phi / 1 atm.
  For ideal gases, phi = 1.

Initial solution 9.	

-----------------------------Solution composition------------------------------

	Elements           Molality       Moles

	Cl                7.050e-01   7.050e-01
	K                 7.050e-01   7.050e-01

----------------------------Description of solution----------------------------

                                       pH  =   7.041      Charge balance
                                       pe  =   4.000    
       Specific Conductance (µS/cm, 20°C)  = 71705
                          Density (g/cmł)  =   1.03027
                               Volume (L)  =   1.02163
                        Viscosity (mPa s)  =   0.99183
                        Activity of water  =   0.976
                           Ionic strength  =   7.050e-01
                       Mass of water (kg)  =   1.000e+00
                 Total alkalinity (eq/kg)  =  -5.146e-15
                    Total carbon (mol/kg)  =   0.000e+00
                       Total CO2 (mol/kg)  =   0.000e+00
                         Temperature (°C)  =  20.00
                  Electrical balance (eq)  =   5.137e-15
 Percent error, 100*(Cat-|An|)/(Cat+|An|)  =   0.00
                               Iterations  =   3
                                  Total H  = 1.110124e+02
                                  Total O  = 5.550622e+01

----------------------------Distribution of species----------------------------

                                               Log       Log       Log    mole V
   Species          Molality    Activity  Molality  Activity     Gamma   cmł/mol

   H+              1.209e-07   9.092e-08    -6.917    -7.041    -0.124      0.00
   OH-             1.209e-07   7.349e-08    -6.917    -7.134    -0.216     (0)  
   H2O             5.551e+01   9.760e-01     1.744    -0.011     0.000     18.05
Cl            7.050e-01
   Cl-             7.050e-01   4.443e-01    -0.152    -0.352    -0.200     18.62
H(0)          1.047e-25
   H2              5.234e-26   6.156e-26   -25.281   -25.211     0.070     28.61
K             7.050e-01
   K+              7.050e-01   4.390e-01    -0.152    -0.358    -0.206      9.52
O(0)          0.000e+00
   O2              0.000e+00   0.000e+00   -43.691   -43.621     0.070     29.98

------------------------------Saturation indices-------------------------------

  Phase               SI** log IAP   log K(293 K,   1 atm)

  H2(g)           -22.12    -25.21   -3.09  H2
  H2O(g)           -1.64     -0.01    1.63  H2O
  O2(g)           -40.77    -43.62   -2.85  O2
  Sylvite          -1.58     -0.71    0.87  KCl

**For a gas, SI = log10(fugacity). Fugacity = pressure * phi / 1 atm.
  For ideal gases, phi = 1.

Initial solution 10.	

-----------------------------Solution composition------------------------------

	Elements           Molality       Moles

	Cl                8.557e-01   8.557e-01
	K                 8.557e-01   8.557e-01

----------------------------Description of solution----------------------------

                                       pH  =   7.032      Charge balance
                                       pe  =   4.000    
       Specific Conductance (µS/cm, 20°C)  = 85512
                          Density (g/cmł)  =   1.03683
                               Volume (L)  =   1.02601
                        Viscosity (mPa s)  =   0.99052
                        Activity of water  =   0.971
                           Ionic strength  =   8.557e-01
                       Mass of water (kg)  =   1.000e+00
                 Total alkalinity (eq/kg)  =  -1.123e-14
                    Total carbon (mol/kg)  =   0.000e+00
                       Total CO2 (mol/kg)  =   0.000e+00
                         Temperature (°C)  =  20.00
                  Electrical balance (eq)  =   1.136e-14
 Percent error, 100*(Cat-|An|)/(Cat+|An|)  =   0.00
                               Iterations  =   3
                                  Total H  = 1.110124e+02
                                  Total O  = 5.550622e+01

----------------------------Distribution of species----------------------------

                                               Log       Log       Log    mole V
   Species          Molality    Activity  Molality  Activity     Gamma   cmł/mol

   H+              1.206e-07   9.294e-08    -6.919    -7.032    -0.113      0.00
   OH-             1.206e-07   7.151e-08    -6.919    -7.146    -0.227     (0)  
   H2O             5.551e+01   9.709e-01     1.744    -0.013     0.000     18.05
Cl            8.557e-01
   Cl-             8.557e-01   5.298e-01    -0.068    -0.276    -0.208     18.69
H(0)          1.056e-25
   H2              5.282e-26   6.433e-26   -25.277   -25.192     0.086     28.61
K             8.557e-01
   K+              8.557e-01   5.226e-01    -0.068    -0.282    -0.214      9.60
O(0)          0.000e+00
   O2              0.000e+00   0.000e+00   -43.749   -43.664     0.086     29.98

------------------------------Saturation indices-------------------------------

  Phase               SI** log IAP   log K(293 K,   1 atm)

  H2(g)           -22.10    -25.19   -3.09  H2
  H2O(g)           -1.65     -0.01    1.63  H2O
  O2(g)           -40.81    -43.66   -2.85  O2
  Sylvite          -1.43     -0.56    0.87  KCl

**For a gas, SI = log10(fugacity). Fugacity = pressure * phi / 1 atm.
  For ideal gases, phi = 1.

Initial solution 11.	

-----------------------------Solution composition------------------------------

	Elements           Molality       Moles

	Cl                1.009e+00   1.009e+00
	K                 1.009e+00   1.009e+00

----------------------------Description of solution----------------------------

                                       pH  =   7.022      Charge balance
                                       pe  =   4.000    
       Specific Conductance (µS/cm, 20°C)  = 99241
                          Density (g/cmł)  =   1.04339
                               Volume (L)  =   1.03050
                        Viscosity (mPa s)  =   0.98948
                        Activity of water  =   0.966
                           Ionic strength  =   1.009e+00
                       Mass of water (kg)  =   1.000e+00
                 Total alkalinity (eq/kg)  =  -2.169e-14
                    Total carbon (mol/kg)  =   0.000e+00
                       Total CO2 (mol/kg)  =   0.000e+00
                         Temperature (°C)  =  20.00
                  Electrical balance (eq)  =   2.161e-14
 Percent error, 100*(Cat-|An|)/(Cat+|An|)  =   0.00
                               Iterations  =   3
                                  Total H  = 1.110124e+02
                                  Total O  = 5.550622e+01

----------------------------Distribution of species----------------------------

                                               Log       Log       Log    mole V
   Species          Molality    Activity  Molality  Activity     Gamma   cmł/mol

   H+              1.198e-07   9.505e-08    -6.922    -7.022    -0.100      0.00
   OH-             1.198e-07   6.955e-08    -6.922    -7.158    -0.236     (0)  
   H2O             5.551e+01   9.657e-01     1.744    -0.015     0.000     18.05
Cl            1.009e+00
   Cl-             1.009e+00   6.159e-01     0.004    -0.210    -0.214     18.76
H(0)          1.067e-25
   H2              5.334e-26   6.729e-26   -25.273   -25.172     0.101     28.61
K             1.009e+00
   K+              1.009e+00   6.066e-01     0.004    -0.217    -0.221      9.69
O(0)          0.000e+00
   O2              0.000e+00   0.000e+00   -43.808   -43.707     0.101     29.98

------------------------------Saturation indices-------------------------------

  Phase               SI** log IAP   log K(293 K,   1 atm)

  H2(g)           -22.08    -25.17   -3.09  H2
  H2O(g)           -1.65     -0.02    1.63  H2O
  O2(g)           -40.85    -43.71   -2.85  O2
  Sylvite          -1.30     -0.43    0.87  KCl

**For a gas, SI = log10(fugacity). Fugacity = pressure * phi / 1 atm.
  For ideal gases, phi = 1.

Initial solution 12.	

-----------------------------Solution composition------------------------------

	Elements           Molality       Moles

	Cl                1.086e+00   1.086e+00
	K                 1.086e+00   1.086e+00

----------------------------Description of solution----------------------------

                                       pH  =   7.017      Charge balance
                                       pe  =   4.000    
       Specific Conductance (µS/cm, 20°C)  = 106098
                          Density (g/cmł)  =   1.04668
                               Volume (L)  =   1.03279
                        Viscosity (mPa s)  =   0.98906
                        Activity of water  =   0.963
                           Ionic strength  =   1.086e+00
                       Mass of water (kg)  =   1.000e+00
                 Total alkalinity (eq/kg)  =  -2.907e-14
                    Total carbon (mol/kg)  =   0.000e+00
                       Total CO2 (mol/kg)  =   0.000e+00
                         Temperature (°C)  =  20.00
                  Electrical balance (eq)  =   2.888e-14
 Percent error, 100*(Cat-|An|)/(Cat+|An|)  =   0.00
                               Iterations  =   3
                                  Total H  = 1.110124e+02
                                  Total O  = 5.550622e+01

----------------------------Distribution of species----------------------------

                                               Log       Log       Log    mole V
   Species          Molality    Activity  Molality  Activity     Gamma   cmł/mol

   H+              1.192e-07   9.615e-08    -6.924    -7.017    -0.093      0.00
   OH-             1.192e-07   6.857e-08    -6.924    -7.164    -0.240     (0)  
   H2O             5.551e+01   9.631e-01     1.744    -0.016     0.000     18.05
Cl            1.086e+00
   Cl-             1.086e+00   6.594e-01     0.036    -0.181    -0.217     18.79
H(0)          1.072e-25
   H2              5.361e-26   6.885e-26   -25.271   -25.162     0.109     28.61
K             1.086e+00
   K+              1.086e+00   6.489e-01     0.036    -0.188    -0.224      9.73
O(0)          0.000e+00
   O2              0.000e+00   0.000e+00   -43.838   -43.730     0.109     29.98

------------------------------Saturation indices-------------------------------

  Phase               SI** log IAP   log K(293 K,   1 atm)

  H2(g)           -22.07    -25.16   -3.09  H2
  H2O(g)           -1.65     -0.02    1.63  H2O
  O2(g)           -40.88    -43.73   -2.85  O2
  Sylvite          -1.24     -0.37    0.87  KCl

**For a gas, SI = log10(fugacity). Fugacity = pressure * phi / 1 atm.
  For ideal gases, phi = 1.

------------------
End of simulation.
------------------

------------------------------------
Reading input data for simulation 2.
------------------------------------

	SOLUTION_SPREAD
	 temp 20
	 units mol/L
	number	Na	Cl	pH	density #     HB_SC
	1 	0.0855	0.0855	7 charge	1.0018 #     8200
	2 	0.1728	0.1728	7 charge	1.0054 #     16000
	3 	0.2583	0.2583	7 charge	1.0089 #     23200
	4 	0.3456	0.3456	7 charge	1.0124 #     30200
	5 	0.4346	0.4346	7 charge	1.0160 #     37100
	6 	0.5236	0.5236	7 charge	1.0196 #     44000
	7 	0.6125	0.6125	7 charge	1.0231 #     50700
	8 	0.6844	0.6844	7 charge	1.0260 #     56000
	9 	0.8658	0.8658	7 charge	1.0332 #     68900
	10	1.0318	1.0318	7 charge	1.0397 #     80000
	11	1.3689	1.3689	7 charge	1.0528 #     101000
	12	1.6769	1.6769	7 charge	1.0646 #     118000
	USER_GRAPH 
	  -headings NaCl
	  10 DATA 8200, 16000, 23200, 30200, 37100, 44000, 50700, 56000, 68900, 80000, 101000, 118000
	  20 dim HB(12)
	  30 for i = 1 to cell_no
	  40   READ HB(i)
	  50 next i
	  60 plot_xy HB(cell_no) / 1e3, SC / 1e3, line_width = 0
	END
-------------------------------------------
Beginning of initial solution calculations.
-------------------------------------------

Initial solution 1.	

-----------------------------Solution composition------------------------------

	Elements           Molality       Moles

	Cl                8.577e-02   8.577e-02
	Na                8.577e-02   8.577e-02

----------------------------Description of solution----------------------------

                                       pH  =   7.078      Charge balance
                                       pe  =   4.000    
       Specific Conductance (µS/cm, 20°C)  = 8282
                          Density (g/cmł)  =   1.00177
                               Volume (L)  =   1.00324
                        Viscosity (mPa s)  =   1.00945
                        Activity of water  =   0.997
                           Ionic strength  =   8.577e-02
                       Mass of water (kg)  =   1.000e+00
                 Total alkalinity (eq/kg)  =  -3.811e-18
                    Total carbon (mol/kg)  =   0.000e+00
                       Total CO2 (mol/kg)  =   0.000e+00
                         Temperature (°C)  =  20.00
                  Electrical balance (eq)  =  -1.666e-14
 Percent error, 100*(Cat-|An|)/(Cat+|An|)  =  -0.00
                               Iterations  =   4
                                  Total H  = 1.110124e+02
                                  Total O  = 5.550622e+01

----------------------------Distribution of species----------------------------

                                               Log       Log       Log    mole V
   Species          Molality    Activity  Molality  Activity     Gamma   cmł/mol

   H+              1.055e-07   8.351e-08    -6.977    -7.078    -0.102      0.00
   OH-             1.055e-07   8.174e-08    -6.977    -7.088    -0.111     (0)  
   H2O             5.551e+01   9.971e-01     1.744    -0.001     0.000     18.05
Cl            8.577e-02
   Cl-             8.577e-02   6.683e-02    -1.067    -1.175    -0.108     18.14
H(0)          1.018e-25
   H2              5.092e-26   5.193e-26   -25.293   -25.285     0.009     28.61
Na            8.577e-02
   Na+             8.577e-02   6.823e-02    -1.067    -1.166    -0.099     -1.40
   NaOH            5.467e-19   5.576e-19   -18.262   -18.254     0.009     (0)  
O(0)          0.000e+00
   O2              0.000e+00   0.000e+00   -43.463   -43.455     0.009     29.98

------------------------------Saturation indices-------------------------------

  Phase               SI** log IAP   log K(293 K,   1 atm)

  H2(g)           -22.20    -25.28   -3.09  H2
  H2O(g)           -1.63     -0.00    1.63  H2O
  Halite           -3.91     -2.34    1.57  NaCl
  O2(g)           -40.60    -43.45   -2.85  O2

**For a gas, SI = log10(fugacity). Fugacity = pressure * phi / 1 atm.
  For ideal gases, phi = 1.

Initial solution 2.	

-----------------------------Solution composition------------------------------

	Elements           Molality       Moles

	Cl                1.736e-01   1.736e-01
	Na                1.736e-01   1.736e-01

----------------------------Description of solution----------------------------

                                       pH  =   7.073      Charge balance
                                       pe  =   4.000    
       Specific Conductance (µS/cm, 20°C)  = 15962
                          Density (g/cmł)  =   1.00537
                               Volume (L)  =   1.00475
                        Viscosity (mPa s)  =   1.01678
                        Activity of water  =   0.994
                           Ionic strength  =   1.736e-01
                       Mass of water (kg)  =   1.000e+00
                 Total alkalinity (eq/kg)  =   1.486e-17
                    Total carbon (mol/kg)  =   0.000e+00
                       Total CO2 (mol/kg)  =   0.000e+00
                         Temperature (°C)  =  20.00
                  Electrical balance (eq)  =  -8.738e-13
 Percent error, 100*(Cat-|An|)/(Cat+|An|)  =  -0.00
                               Iterations  =   4
                                  Total H  = 1.110124e+02
                                  Total O  = 5.550622e+01

----------------------------Distribution of species----------------------------

                                               Log       Log       Log    mole V
   Species          Molality    Activity  Molality  Activity     Gamma   cmł/mol

   OH-             1.119e-07   8.060e-08    -6.951    -7.094    -0.143     (0)  
   H+              1.119e-07   8.443e-08    -6.951    -7.073    -0.122      0.00
   H2O             5.551e+01   9.941e-01     1.744    -0.003     0.000     18.05
Cl            1.736e-01
   Cl-             1.736e-01   1.264e-01    -0.760    -0.898    -0.138     18.25
H(0)          1.020e-25
   H2              5.101e-26   5.309e-26   -25.292   -25.275     0.017     28.61
Na            1.736e-01
   Na+             1.736e-01   1.314e-01    -0.760    -0.882    -0.121     -1.24
   NaOH            1.017e-18   1.059e-18   -17.993   -17.975     0.017     (0)  
O(0)          0.000e+00
   O2              0.000e+00   0.000e+00   -43.494   -43.476     0.017     29.98

------------------------------Saturation indices-------------------------------

  Phase               SI** log IAP   log K(293 K,   1 atm)

  H2(g)           -22.19    -25.27   -3.09  H2
  H2O(g)           -1.64     -0.00    1.63  H2O
  Halite           -3.35     -1.78    1.57  NaCl
  O2(g)           -40.62    -43.48   -2.85  O2

**For a gas, SI = log10(fugacity). Fugacity = pressure * phi / 1 atm.
  For ideal gases, phi = 1.

Initial solution 3.	

-----------------------------Solution composition------------------------------

	Elements           Molality       Moles

	Cl                2.599e-01   2.599e-01
	Na                2.599e-01   2.599e-01

----------------------------Description of solution----------------------------

                                       pH  =   7.069      Charge balance
                                       pe  =   4.000    
       Specific Conductance (µS/cm, 20°C)  = 23110
                          Density (g/cmł)  =   1.00886
                               Volume (L)  =   1.00627
                        Viscosity (mPa s)  =   1.02400
                        Activity of water  =   0.991
                           Ionic strength  =   2.599e-01
                       Mass of water (kg)  =   1.000e+00
                 Total alkalinity (eq/kg)  =   1.096e-17
                    Total carbon (mol/kg)  =   0.000e+00
                       Total CO2 (mol/kg)  =   0.000e+00
                         Temperature (°C)  =  20.00
                  Electrical balance (eq)  =  -5.873e-12
 Percent error, 100*(Cat-|An|)/(Cat+|An|)  =  -0.00
                               Iterations  =   4
                                  Total H  = 1.110124e+02
                                  Total O  = 5.550622e+01

----------------------------Distribution of species----------------------------

                                               Log       Log       Log    mole V
   Species          Molality    Activity  Molality  Activity     Gamma   cmł/mol

   OH-             1.156e-07   7.945e-08    -6.937    -7.100    -0.163     (0)  
   H+              1.156e-07   8.540e-08    -6.937    -7.069    -0.131      0.00
   H2O             5.551e+01   9.912e-01     1.744    -0.004     0.000     18.05
Cl            2.599e-01
   Cl-             2.599e-01   1.814e-01    -0.585    -0.741    -0.156     18.33
H(0)          1.023e-25
   H2              5.116e-26   5.431e-26   -25.291   -25.265     0.026     28.61
Na            2.599e-01
   Na+             2.599e-01   1.918e-01    -0.585    -0.717    -0.132     -1.12
   NaOH            1.435e-18   1.524e-18   -17.843   -17.817     0.026     (0)  
O(0)          0.000e+00
   O2              0.000e+00   0.000e+00   -43.525   -43.499     0.026     29.98

------------------------------Saturation indices-------------------------------

  Phase               SI** log IAP   log K(293 K,   1 atm)

  H2(g)           -22.18    -25.27   -3.09  H2
  H2O(g)           -1.64     -0.00    1.63  H2O
  Halite           -3.02     -1.46    1.57  NaCl
  O2(g)           -40.64    -43.50   -2.85  O2

**For a gas, SI = log10(fugacity). Fugacity = pressure * phi / 1 atm.
  For ideal gases, phi = 1.

Initial solution 4.	

-----------------------------Solution composition------------------------------

	Elements           Molality       Moles

	Cl                3.483e-01   3.483e-01
	Na                3.483e-01   3.483e-01

----------------------------Description of solution----------------------------

                                       pH  =   7.063      Charge balance
                                       pe  =   4.000    
       Specific Conductance (µS/cm, 20°C)  = 30135
                          Density (g/cmł)  =   1.01240
                               Volume (L)  =   1.00785
                        Viscosity (mPa s)  =   1.03149
                        Activity of water  =   0.988
                           Ionic strength  =   3.483e-01
                       Mass of water (kg)  =   1.000e+00
                 Total alkalinity (eq/kg)  =   4.373e-18
                    Total carbon (mol/kg)  =   0.000e+00
                       Total CO2 (mol/kg)  =   0.000e+00
                         Temperature (°C)  =  20.00
                  Electrical balance (eq)  =  -1.950e-11
 Percent error, 100*(Cat-|An|)/(Cat+|An|)  =  -0.00
                               Iterations  =   4
                                  Total H  = 1.110124e+02
                                  Total O  = 5.550622e+01

----------------------------Distribution of species----------------------------

                                               Log       Log       Log    mole V
   Species          Molality    Activity  Molality  Activity     Gamma   cmł/mol

   OH-             1.179e-07   7.826e-08    -6.928    -7.106    -0.178     (0)  
   H+              1.179e-07   8.644e-08    -6.928    -7.063    -0.135      0.00
   H2O             5.551e+01   9.882e-01     1.744    -0.005     0.000     18.05
Cl            3.483e-01
   Cl-             3.483e-01   2.358e-01    -0.458    -0.627    -0.169     18.40
H(0)          1.027e-25
   H2              5.135e-26   5.564e-26   -25.289   -25.255     0.035     28.61
Na            3.483e-01
   Na+             3.483e-01   2.533e-01    -0.458    -0.596    -0.138     -1.02
   NaOH            1.830e-18   1.983e-18   -17.738   -17.703     0.035     (0)  
O(0)          0.000e+00
   O2              0.000e+00   0.000e+00   -43.557   -43.522     0.035     29.98

------------------------------Saturation indices-------------------------------

  Phase               SI** log IAP   log K(293 K,   1 atm)

  H2(g)           -22.17    -25.25   -3.09  H2
  H2O(g)           -1.64     -0.01    1.63  H2O
  Halite           -2.79     -1.22    1.57  NaCl
  O2(g)           -40.67    -43.52   -2.85  O2

**For a gas, SI = log10(fugacity). Fugacity = pressure * phi / 1 atm.
  For ideal gases, phi = 1.

Initial solution 5.	

-----------------------------Solution composition------------------------------

	Elements           Molality       Moles

	Cl                4.387e-01   4.387e-01
	Na                4.387e-01   4.387e-01

----------------------------Description of solution----------------------------

                                       pH  =   7.058      Charge balance
                                       pe  =   4.000    
       Specific Conductance (µS/cm, 20°C)  = 37067
                          Density (g/cmł)  =   1.01600
                               Volume (L)  =   1.00949
                        Viscosity (mPa s)  =   1.03928
                        Activity of water  =   0.985
                           Ionic strength  =   4.387e-01
                       Mass of water (kg)  =   1.000e+00
                 Total alkalinity (eq/kg)  =   1.787e-17
                    Total carbon (mol/kg)  =   0.000e+00
                       Total CO2 (mol/kg)  =   0.000e+00
                         Temperature (°C)  =  20.00
                  Electrical balance (eq)  =   1.154e-13
 Percent error, 100*(Cat-|An|)/(Cat+|An|)  =   0.00
                               Iterations  =   4
                                  Total H  = 1.110124e+02
                                  Total O  = 5.550622e+01

----------------------------Distribution of species----------------------------

                                               Log       Log       Log    mole V
   Species          Molality    Activity  Molality  Activity     Gamma   cmł/mol

   OH-             1.194e-07   7.704e-08    -6.923    -7.113    -0.190     (0)  
   H+              1.194e-07   8.753e-08    -6.923    -7.058    -0.135      0.00
   H2O             5.551e+01   9.851e-01     1.744    -0.007     0.000     18.05
Cl            4.387e-01
   Cl-             4.387e-01   2.899e-01    -0.358    -0.538    -0.180     18.47
H(0)          1.031e-25
   H2              5.157e-26   5.706e-26   -25.288   -25.244     0.044     28.61
Na            4.387e-01
   Na+             4.387e-01   3.166e-01    -0.358    -0.499    -0.142     -0.93
   NaOH            2.205e-18   2.439e-18   -17.657   -17.613     0.044     (0)  
O(0)          0.000e+00
   O2              0.000e+00   0.000e+00   -43.591   -43.547     0.044     29.98

------------------------------Saturation indices-------------------------------

  Phase               SI** log IAP   log K(293 K,   1 atm)

  H2(g)           -22.16    -25.24   -3.09  H2
  H2O(g)           -1.64     -0.01    1.63  H2O
  Halite           -2.60     -1.04    1.57  NaCl
  O2(g)           -40.69    -43.55   -2.85  O2

**For a gas, SI = log10(fugacity). Fugacity = pressure * phi / 1 atm.
  For ideal gases, phi = 1.

Initial solution 6.	

-----------------------------Solution composition------------------------------

	Elements           Molality       Moles

	Cl                5.294e-01   5.294e-01
	Na                5.294e-01   5.294e-01

----------------------------Description of solution----------------------------

                                       pH  =   7.052      Charge balance
                                       pe  =   4.000    
       Specific Conductance (µS/cm, 20°C)  = 43799
                          Density (g/cmł)  =   1.01957
                               Volume (L)  =   1.01115
                        Viscosity (mPa s)  =   1.04723
                        Activity of water  =   0.982
                           Ionic strength  =   5.294e-01
                       Mass of water (kg)  =   1.000e+00
                 Total alkalinity (eq/kg)  =   1.067e-17
                    Total carbon (mol/kg)  =   0.000e+00
                       Total CO2 (mol/kg)  =   0.000e+00
                         Temperature (°C)  =  20.00
                  Electrical balance (eq)  =   9.332e-14
 Percent error, 100*(Cat-|An|)/(Cat+|An|)  =   0.00
                               Iterations  =   4
                                  Total H  = 1.110124e+02
                                  Total O  = 5.550622e+01

----------------------------Distribution of species----------------------------

                                               Log       Log       Log    mole V
   Species          Molality    Activity  Molality  Activity     Gamma   cmł/mol

   OH-             1.203e-07   7.582e-08    -6.920    -7.120    -0.201     (0)  
   H+              1.203e-07   8.866e-08    -6.920    -7.052    -0.133      0.00
   H2O             5.551e+01   9.820e-01     1.744    -0.008     0.000     18.05
Cl            5.294e-01
   Cl-             5.294e-01   3.432e-01    -0.276    -0.464    -0.188     18.52
H(0)          1.036e-25
   H2              5.182e-26   5.854e-26   -25.286   -25.233     0.053     28.61
Na            5.294e-01
   Na+             5.294e-01   3.808e-01    -0.276    -0.419    -0.143     -0.86
   NaOH            2.556e-18   2.887e-18   -17.592   -17.540     0.053     (0)  
O(0)          0.000e+00
   O2              0.000e+00   0.000e+00   -43.625   -43.572     0.053     29.98

------------------------------Saturation indices-------------------------------

  Phase               SI** log IAP   log K(293 K,   1 atm)

  H2(g)           -22.14    -25.23   -3.09  H2
  H2O(g)           -1.64     -0.01    1.63  H2O
  Halite           -2.45     -0.88    1.57  NaCl
  O2(g)           -40.72    -43.57   -2.85  O2

**For a gas, SI = log10(fugacity). Fugacity = pressure * phi / 1 atm.
  For ideal gases, phi = 1.

Initial solution 7.	

-----------------------------Solution composition------------------------------

	Elements           Molality       Moles

	Cl                6.204e-01   6.204e-01
	Na                6.204e-01   6.204e-01

----------------------------Description of solution----------------------------

                                       pH  =   7.047      Charge balance
                                       pe  =   4.000    
       Specific Conductance (µS/cm, 20°C)  = 50350
                          Density (g/cmł)  =   1.02312
                               Volume (L)  =   1.01284
                        Viscosity (mPa s)  =   1.05536
                        Activity of water  =   0.979
                           Ionic strength  =   6.204e-01
                       Mass of water (kg)  =   1.000e+00
                 Total alkalinity (eq/kg)  =   4.779e-17
                    Total carbon (mol/kg)  =   0.000e+00
                       Total CO2 (mol/kg)  =   0.000e+00
                         Temperature (°C)  =  20.00
                  Electrical balance (eq)  =   6.026e-14
 Percent error, 100*(Cat-|An|)/(Cat+|An|)  =   0.00
                               Iterations  =   4
                                  Total H  = 1.110124e+02
                                  Total O  = 5.550622e+01

----------------------------Distribution of species----------------------------

                                               Log       Log       Log    mole V
   Species          Molality    Activity  Molality  Activity     Gamma   cmł/mol

   OH-             1.208e-07   7.461e-08    -6.918    -7.127    -0.209     (0)  
   H+              1.208e-07   8.982e-08    -6.918    -7.047    -0.129      0.00
   H2O             5.551e+01   9.789e-01     1.744    -0.009     0.000     18.05
Cl            6.204e-01
   Cl-             6.204e-01   3.959e-01    -0.207    -0.402    -0.195     18.57
H(0)          1.042e-25
   H2              5.208e-26   6.008e-26   -25.283   -25.221     0.062     28.61
Na            6.204e-01
   Na+             6.204e-01   4.462e-01    -0.207    -0.351    -0.143     -0.78
   NaOH            2.886e-18   3.329e-18   -17.540   -17.478     0.062     (0)  
O(0)          0.000e+00
   O2              0.000e+00   0.000e+00   -43.659   -43.597     0.062     29.98

------------------------------Saturation indices-------------------------------

  Phase               SI** log IAP   log K(293 K,   1 atm)

  H2(g)           -22.13    -25.22   -3.09  H2
  H2O(g)           -1.64     -0.01    1.63  H2O
  Halite           -2.32     -0.75    1.57  NaCl
  O2(g)           -40.74    -43.60   -2.85  O2

**For a gas, SI = log10(fugacity). Fugacity = pressure * phi / 1 atm.
  For ideal gases, phi = 1.

Initial solution 8.	

-----------------------------Solution composition------------------------------

	Elements           Molality       Moles

	Cl                6.941e-01   6.941e-01
	Na                6.941e-01   6.941e-01

----------------------------Description of solution----------------------------

                                       pH  =   7.042      Charge balance
                                       pe  =   4.000    
       Specific Conductance (µS/cm, 20°C)  = 55527
                          Density (g/cmł)  =   1.02598
                               Volume (L)  =   1.01421
                        Viscosity (mPa s)  =   1.06207
                        Activity of water  =   0.976
                           Ionic strength  =   6.941e-01
                       Mass of water (kg)  =   1.000e+00
                 Total alkalinity (eq/kg)  =   4.153e-17
                    Total carbon (mol/kg)  =   0.000e+00
                       Total CO2 (mol/kg)  =   0.000e+00
                         Temperature (°C)  =  20.00
                  Electrical balance (eq)  =   3.674e-14
 Percent error, 100*(Cat-|An|)/(Cat+|An|)  =   0.00
                               Iterations  =   4
                                  Total H  = 1.110124e+02
                                  Total O  = 5.550622e+01

----------------------------Distribution of species----------------------------

                                               Log       Log       Log    mole V
   Species          Molality    Activity  Molality  Activity     Gamma   cmł/mol

   OH-             1.209e-07   7.363e-08    -6.917    -7.133    -0.215     (0)  
   H+              1.209e-07   9.078e-08    -6.917    -7.042    -0.125      0.00
   H2O             5.551e+01   9.764e-01     1.744    -0.010     0.000     18.05
Cl            6.941e-01
   Cl-             6.941e-01   4.381e-01    -0.159    -0.358    -0.200     18.61
H(0)          1.046e-25
   H2              5.231e-26   6.137e-26   -25.281   -25.212     0.069     28.61
Na            6.941e-01
   Na+             6.941e-01   5.001e-01    -0.159    -0.301    -0.142     -0.73
   NaOH            3.138e-18   3.682e-18   -17.503   -17.434     0.069     (0)  
O(0)          0.000e+00
   O2              0.000e+00   0.000e+00   -43.687   -43.618     0.069     29.98

------------------------------Saturation indices-------------------------------

  Phase               SI** log IAP   log K(293 K,   1 atm)

  H2(g)           -22.12    -25.21   -3.09  H2
  H2O(g)           -1.64     -0.01    1.63  H2O
  Halite           -2.23     -0.66    1.57  NaCl
  O2(g)           -40.76    -43.62   -2.85  O2

**For a gas, SI = log10(fugacity). Fugacity = pressure * phi / 1 atm.
  For ideal gases, phi = 1.

Initial solution 9.	

-----------------------------Solution composition------------------------------

	Elements           Molality       Moles

	Cl                8.811e-01   8.811e-01
	Na                8.811e-01   8.811e-01

----------------------------Description of solution----------------------------

                                       pH  =   7.030      Charge balance
                                       pe  =   4.000    
       Specific Conductance (µS/cm, 20°C)  = 68156
                          Density (g/cmł)  =   1.03316
                               Volume (L)  =   1.01775
                        Viscosity (mPa s)  =   1.07959
                        Activity of water  =   0.970
                           Ionic strength  =   8.811e-01
                       Mass of water (kg)  =   1.000e+00
                 Total alkalinity (eq/kg)  =   4.606e-17
                    Total carbon (mol/kg)  =   0.000e+00
                       Total CO2 (mol/kg)  =   0.000e+00
                         Temperature (°C)  =  20.00
                  Electrical balance (eq)  =   6.123e-15
 Percent error, 100*(Cat-|An|)/(Cat+|An|)  =   0.00
                               Iterations  =   4
                                  Total H  = 1.110124e+02
                                  Total O  = 5.550622e+01

----------------------------Distribution of species----------------------------

                                               Log       Log       Log    mole V
   Species          Molality    Activity  Molality  Activity     Gamma   cmł/mol

   OH-             1.205e-07   7.118e-08    -6.919    -7.148    -0.229     (0)  
   H+              1.205e-07   9.329e-08    -6.919    -7.030    -0.111      0.00
   H2O             5.551e+01   9.700e-01     1.744    -0.013     0.000     18.05
Cl            8.811e-01
   Cl-             8.811e-01   5.442e-01    -0.055    -0.264    -0.209     18.71
H(0)          1.058e-25
   H2              5.291e-26   6.481e-26   -25.276   -25.188     0.088     28.61
Na            8.811e-01
   Na+             8.811e-01   6.409e-01    -0.055    -0.193    -0.138     -0.61
   NaOH            3.724e-18   4.562e-18   -17.429   -17.341     0.088     (0)  
O(0)          0.000e+00
   O2              0.000e+00   0.000e+00   -43.759   -43.671     0.088     29.98

------------------------------Saturation indices-------------------------------

  Phase               SI** log IAP   log K(293 K,   1 atm)

  H2(g)           -22.10    -25.19   -3.09  H2
  H2O(g)           -1.65     -0.01    1.63  H2O
  Halite           -2.02     -0.46    1.57  NaCl
  O2(g)           -40.82    -43.67   -2.85  O2

**For a gas, SI = log10(fugacity). Fugacity = pressure * phi / 1 atm.
  For ideal gases, phi = 1.

Initial solution 10.	

-----------------------------Solution composition------------------------------

	Elements           Molality       Moles

	Cl                1.054e+00   1.054e+00
	Na                1.054e+00   1.054e+00

----------------------------Description of solution----------------------------

                                       pH  =   7.019      Charge balance
                                       pe  =   4.000    
       Specific Conductance (µS/cm, 20°C)  = 79210
                          Density (g/cmł)  =   1.03968
                               Volume (L)  =   1.02105
                        Viscosity (mPa s)  =   1.09641
                        Activity of water  =   0.964
                           Ionic strength  =   1.054e+00
                       Mass of water (kg)  =   1.000e+00
                 Total alkalinity (eq/kg)  =  -7.348e-17
                    Total carbon (mol/kg)  =   0.000e+00
                       Total CO2 (mol/kg)  =   0.000e+00
                         Temperature (°C)  =  20.00
                  Electrical balance (eq)  =   6.728e-16
 Percent error, 100*(Cat-|An|)/(Cat+|An|)  =   0.00
                               Iterations  =   4
                                  Total H  = 1.110124e+02
                                  Total O  = 5.550622e+01

----------------------------Distribution of species----------------------------

                                               Log       Log       Log    mole V
   Species          Molality    Activity  Molality  Activity     Gamma   cmł/mol

   H+              1.194e-07   9.568e-08    -6.923    -7.019    -0.096      0.00
   OH-             1.194e-07   6.898e-08    -6.923    -7.161    -0.238     (0)  
   H2O             5.551e+01   9.642e-01     1.744    -0.016     0.000     18.05
Cl            1.054e+00
   Cl-             1.054e+00   6.409e-01     0.023    -0.193    -0.216     18.78
H(0)          1.070e-25
   H2              5.349e-26   6.818e-26   -25.272   -25.166     0.105     28.61
Na            1.054e+00
   Na+             1.054e+00   7.766e-01     0.023    -0.110    -0.132     -0.50
   NaOH            4.203e-18   5.357e-18   -17.376   -17.271     0.105     (0)  
O(0)          0.000e+00
   O2              0.000e+00   0.000e+00   -43.825   -43.720     0.105     29.98

------------------------------Saturation indices-------------------------------

  Phase               SI** log IAP   log K(293 K,   1 atm)

  H2(g)           -22.08    -25.17   -3.09  H2
  H2O(g)           -1.65     -0.02    1.63  H2O
  Halite           -1.87     -0.30    1.57  NaCl
  O2(g)           -40.87    -43.72   -2.85  O2

**For a gas, SI = log10(fugacity). Fugacity = pressure * phi / 1 atm.
  For ideal gases, phi = 1.

Initial solution 11.	

-----------------------------Solution composition------------------------------

	Elements           Molality       Moles

	Cl                1.407e+00   1.407e+00
	Na                1.407e+00   1.407e+00

----------------------------Description of solution----------------------------

                                       pH  =   6.996      Charge balance
                                       pe  =   4.000    
       Specific Conductance (µS/cm, 20°C)  = 100280
                          Density (g/cmł)  =   1.05279
                               Volume (L)  =   1.02797
                        Viscosity (mPa s)  =   1.13306
                        Activity of water  =   0.952
                           Ionic strength  =   1.407e+00
                       Mass of water (kg)  =   1.000e+00
                 Total alkalinity (eq/kg)  =  -8.104e-14
                    Total carbon (mol/kg)  =   0.000e+00
                       Total CO2 (mol/kg)  =   0.000e+00
                         Temperature (°C)  =  20.00
                  Electrical balance (eq)  =  -2.814e-10
 Percent error, 100*(Cat-|An|)/(Cat+|An|)  =  -0.00
                               Iterations  =   3
                                  Total H  = 1.110124e+02
                                  Total O  = 5.550622e+01

----------------------------Distribution of species----------------------------

                                               Log       Log       Log    mole V
   Species          Molality    Activity  Molality  Activity     Gamma   cmł/mol

   H+              1.160e-07   1.009e-07    -6.935    -6.996    -0.061      0.00
   OH-             1.160e-07   6.463e-08    -6.935    -7.190    -0.254     (0)  
   H2O             5.551e+01   9.522e-01     1.744    -0.021     0.000     18.05
Cl            1.407e+00
   Cl-             1.407e+00   8.384e-01     0.148    -0.077    -0.225     18.92
H(0)          1.096e-25
   H2              5.478e-26   7.574e-26   -25.261   -25.121     0.141     28.61
Na            1.407e+00
   Na+             1.407e+00   1.076e+00     0.148     0.032    -0.117     -0.32
   NaOH            5.029e-18   6.953e-18   -17.299   -17.158     0.141     (0)  
O(0)          0.000e+00
   O2              0.000e+00   0.000e+00   -43.963   -43.822     0.141     29.98

------------------------------Saturation indices-------------------------------

  Phase               SI** log IAP   log K(293 K,   1 atm)

  H2(g)           -22.03    -25.12   -3.09  H2
  H2O(g)           -1.65     -0.02    1.63  H2O
  Halite           -1.61     -0.04    1.57  NaCl
  O2(g)           -40.97    -43.82   -2.85  O2

**For a gas, SI = log10(fugacity). Fugacity = pressure * phi / 1 atm.
  For ideal gases, phi = 1.

Initial solution 12.	

-----------------------------Solution composition------------------------------

	Elements           Molality       Moles

	Cl                1.735e+00   1.735e+00
	Na                1.735e+00   1.735e+00

----------------------------Description of solution----------------------------

                                       pH  =   6.975      Charge balance
                                       pe  =   4.000    
       Specific Conductance (µS/cm, 20°C)  = 118000
                          Density (g/cmł)  =   1.06464
                               Volume (L)  =   1.03452
                        Viscosity (mPa s)  =   1.16974
                        Activity of water  =   0.941
                           Ionic strength  =   1.735e+00
                       Mass of water (kg)  =   1.000e+00
                 Total alkalinity (eq/kg)  =  -1.837e-13
                    Total carbon (mol/kg)  =   0.000e+00
                       Total CO2 (mol/kg)  =   0.000e+00
                         Temperature (°C)  =  20.00
                  Electrical balance (eq)  =   3.365e-10
 Percent error, 100*(Cat-|An|)/(Cat+|An|)  =   0.00
                               Iterations  =   3
                                  Total H  = 1.110124e+02
                                  Total O  = 5.550622e+01

----------------------------Distribution of species----------------------------

                                               Log       Log       Log    mole V
   Species          Molality    Activity  Molality  Activity     Gamma   cmł/mol

   H+              1.120e-07   1.059e-07    -6.951    -6.975    -0.024      0.00
   OH-             1.120e-07   6.081e-08    -6.951    -7.216    -0.265     (0)  
   H2O             5.551e+01   9.410e-01     1.744    -0.026     0.000     18.05
Cl            1.735e+00
   Cl-             1.735e+00   1.021e+00     0.239     0.009    -0.230     19.03
H(0)          1.121e-25
   H2              5.605e-26   8.357e-26   -25.251   -25.078     0.173     28.61
Na            1.735e+00
   Na+             1.735e+00   1.381e+00     0.239     0.140    -0.099     -0.17
   NaOH            5.633e-18   8.399e-18   -17.249   -17.076     0.173     (0)  
O(0)          0.000e+00
   O2              0.000e+00   0.000e+00   -44.092   -43.918     0.173     29.98

------------------------------Saturation indices-------------------------------

  Phase               SI** log IAP   log K(293 K,   1 atm)

  H2(g)           -21.99    -25.08   -3.09  H2
  H2O(g)           -1.66     -0.03    1.63  H2O
  Halite           -1.42      0.15    1.57  NaCl
  O2(g)           -41.06    -43.92   -2.85  O2

**For a gas, SI = log10(fugacity). Fugacity = pressure * phi / 1 atm.
  For ideal gases, phi = 1.

------------------
End of simulation.
------------------

------------------------------------
Reading input data for simulation 3.
------------------------------------

	SOLUTION_SPREAD
	 temp 20
	 units mol/L
	number	Ca	Cl	pH	density #     HB_SC
	1 	4.50E-02	9.00E-02	7 charge	1.0023 #     8100
	2 	9.10E-02	1.82E-01	7 charge	1.0065 #     15700
	3 	1.37E-01	2.74E-01	7 charge	1.0107 #     22700
	4 	1.83E-01	3.66E-01	7 charge	1.0148 #     29400
	5 	2.30E-01	4.60E-01	7 charge	1.0190 #     36100
	6 	2.77E-01	5.54E-01	7 charge	1.0232 #     42600
	7 	3.24E-01	6.48E-01	7 charge	1.0274 #     48900
	8 	3.72E-01	7.44E-01	7 charge	1.0317 #     55100
	9 	4.69E-01	9.38E-01	7 charge	1.0402 #     67000
	10	5.67E-01	1.13E+00	7 charge	1.0488 #     78300
	11	6.67E-01	1.33E+00	7 charge	1.0575 #     88700
	12	8.20E-01	1.64E+00	7 charge	1.0707 #     103000
	USER_GRAPH 
	  -headings CaCl2
	  10 DATA 8100, 15700, 22700, 29400, 36100, 42600, 48900, 55100, 67000, 78300, 88700, 103000
	  20 dim HB(12)
	  30 for i = 1 to cell_no
	  40   READ HB(i)
	  50 next i
	  60 plot_xy HB(cell_no) / 1e3, SC / 1e3, line_width = 0
	END
-------------------------------------------
Beginning of initial solution calculations.
-------------------------------------------

Initial solution 1.	

-----------------------------Solution composition------------------------------

	Elements           Molality       Moles

	Ca                4.512e-02   4.512e-02
	Cl                9.024e-02   9.024e-02

----------------------------Description of solution----------------------------

                                       pH  =   7.005      Charge balance
                                       pe  =   4.000    
       Specific Conductance (µS/cm, 20°C)  = 8392
                          Density (g/cmł)  =   1.00235
                               Volume (L)  =   1.00266
                        Viscosity (mPa s)  =   1.01905
                        Activity of water  =   0.998
                           Ionic strength  =   1.354e-01
                       Mass of water (kg)  =   1.000e+00
                 Total alkalinity (eq/kg)  =   1.484e-18
                    Total carbon (mol/kg)  =   0.000e+00
                       Total CO2 (mol/kg)  =   0.000e+00
                         Temperature (°C)  =  20.00
                  Electrical balance (eq)  =  -2.208e-14
 Percent error, 100*(Cat-|An|)/(Cat+|An|)  =  -0.00
                               Iterations  =   4
                                  Total H  = 1.110124e+02
                                  Total O  = 5.550622e+01

----------------------------Distribution of species----------------------------

                                               Log       Log       Log    mole V
   Species          Molality    Activity  Molality  Activity     Gamma   cmł/mol

   H+              1.290e-07   9.887e-08    -6.889    -7.005    -0.115      0.00
   OH-             9.337e-08   6.908e-08    -7.030    -7.161    -0.131     (0)  
   H2O             5.551e+01   9.977e-01     1.744    -0.001     0.000     18.05
Ca            4.512e-02
   Ca+2            4.512e-02   1.631e-02    -1.346    -1.788    -0.442    -17.44
   CaOH+           3.563e-08   2.731e-08    -7.448    -7.564    -0.115     (0)  
Cl            9.024e-02
   Cl-             9.024e-02   6.734e-02    -1.045    -1.172    -0.127     18.21
H(0)          1.411e-25
   H2              7.057e-26   7.280e-26   -25.151   -25.138     0.014     28.61
O(0)          0.000e+00
   O2              0.000e+00   0.000e+00   -43.761   -43.747     0.014     29.98

------------------------------Saturation indices-------------------------------

  Phase               SI** log IAP   log K(293 K,   1 atm)

  H2(g)           -22.05    -25.14   -3.09  H2
  H2O(g)           -1.63     -0.00    1.63  H2O
  O2(g)           -40.89    -43.75   -2.85  O2

**For a gas, SI = log10(fugacity). Fugacity = pressure * phi / 1 atm.
  For ideal gases, phi = 1.

Initial solution 2.	

-----------------------------Solution composition------------------------------

	Elements           Molality       Moles

	Ca                9.133e-02   9.133e-02
	Cl                1.827e-01   1.827e-01

----------------------------Description of solution----------------------------

                                       pH  =   6.963      Charge balance
                                       pe  =   4.000    
       Specific Conductance (µS/cm, 20°C)  = 16065
                          Density (g/cmł)  =   1.00653
                               Volume (L)  =   1.00358
                        Viscosity (mPa s)  =   1.03539
                        Activity of water  =   0.995
                           Ionic strength  =   2.740e-01
                       Mass of water (kg)  =   1.000e+00
                 Total alkalinity (eq/kg)  =  -2.354e-18
                    Total carbon (mol/kg)  =   0.000e+00
                       Total CO2 (mol/kg)  =   0.000e+00
                         Temperature (°C)  =  20.00
                  Electrical balance (eq)  =  -1.002e-12
 Percent error, 100*(Cat-|An|)/(Cat+|An|)  =  -0.00
                               Iterations  =   4
                                  Total H  = 1.110124e+02
                                  Total O  = 5.550622e+01

----------------------------Distribution of species----------------------------

                                               Log       Log       Log    mole V
   Species          Molality    Activity  Molality  Activity     Gamma   cmł/mol

   H+              1.477e-07   1.089e-07    -6.831    -6.963    -0.132      0.00
   OH-             9.157e-08   6.256e-08    -7.038    -7.204    -0.165     (0)  
   H2O             5.551e+01   9.953e-01     1.744    -0.002     0.000     18.05
Ca            9.133e-02
   Ca+2            9.133e-02   2.728e-02    -1.039    -1.564    -0.525    -17.21
   CaOH+           5.609e-08   4.137e-08    -7.251    -7.383    -0.132     (0)  
Cl            1.827e-01
   Cl-             1.827e-01   1.268e-01    -0.738    -0.897    -0.158     18.34
H(0)          1.659e-25
   H2              8.293e-26   8.833e-26   -25.081   -25.054     0.027     28.61
O(0)          0.000e+00
   O2              0.000e+00   0.000e+00   -43.945   -43.917     0.027     29.98

------------------------------Saturation indices-------------------------------

  Phase               SI** log IAP   log K(293 K,   1 atm)

  H2(g)           -21.97    -25.05   -3.09  H2
  H2O(g)           -1.64     -0.00    1.63  H2O
  O2(g)           -41.06    -43.92   -2.85  O2

**For a gas, SI = log10(fugacity). Fugacity = pressure * phi / 1 atm.
  For ideal gases, phi = 1.

Initial solution 3.	

-----------------------------Solution composition------------------------------

	Elements           Molality       Moles

	Ca                1.376e-01   1.376e-01
	Cl                2.752e-01   2.752e-01

----------------------------Description of solution----------------------------

                                       pH  =   6.930      Charge balance
                                       pe  =   4.000    
       Specific Conductance (µS/cm, 20°C)  = 23349
                          Density (g/cmł)  =   1.01069
                               Volume (L)  =   1.00453
                        Viscosity (mPa s)  =   1.05160
                        Activity of water  =   0.993
                           Ionic strength  =   4.129e-01
                       Mass of water (kg)  =   1.000e+00
                 Total alkalinity (eq/kg)  =  -3.974e-12
                    Total carbon (mol/kg)  =   0.000e+00
                       Total CO2 (mol/kg)  =   0.000e+00
                         Temperature (°C)  =  20.00
                  Electrical balance (eq)  =   7.172e-13
 Percent error, 100*(Cat-|An|)/(Cat+|An|)  =   0.00
                               Iterations  =   2
                                  Total H  = 1.110124e+02
                                  Total O  = 5.550622e+01

----------------------------Distribution of species----------------------------

                                               Log       Log       Log    mole V
   Species          Molality    Activity  Molality  Activity     Gamma   cmł/mol

   H+              1.606e-07   1.176e-07    -6.794    -6.930    -0.135      0.00
   OH-             8.891e-08   5.779e-08    -7.051    -7.238    -0.187     (0)  
   H2O             5.551e+01   9.930e-01     1.744    -0.003     0.000     18.05
Ca            1.376e-01
   Ca+2            1.376e-01   3.746e-02    -0.861    -1.426    -0.565    -17.05
   CaOH+           7.166e-08   5.249e-08    -7.145    -7.280    -0.135     (0)  
Cl            2.752e-01
   Cl-             2.752e-01   1.830e-01    -0.560    -0.737    -0.177     18.45
H(0)          1.874e-25
   H2              9.368e-26   1.030e-25   -25.028   -24.987     0.041     28.61
O(0)          0.000e+00
   O2              0.000e+00   0.000e+00   -44.094   -44.053     0.041     29.98

------------------------------Saturation indices-------------------------------

  Phase               SI** log IAP   log K(293 K,   1 atm)

  H2(g)           -21.90    -24.99   -3.09  H2
  H2O(g)           -1.64     -0.00    1.63  H2O
  O2(g)           -41.20    -44.05   -2.85  O2

**For a gas, SI = log10(fugacity). Fugacity = pressure * phi / 1 atm.
  For ideal gases, phi = 1.

Initial solution 4.	

-----------------------------Solution composition------------------------------

	Elements           Molality       Moles

	Ca                1.840e-01   1.840e-01
	Cl                3.680e-01   3.680e-01

----------------------------Description of solution----------------------------

                                       pH  =   6.900      Charge balance
                                       pe  =   4.000    
       Specific Conductance (µS/cm, 20°C)  = 30334
                          Density (g/cmł)  =   1.01483
                               Volume (L)  =   1.00551
                        Viscosity (mPa s)  =   1.06781
                        Activity of water  =   0.991
                           Ionic strength  =   5.520e-01
                       Mass of water (kg)  =   1.000e+00
                 Total alkalinity (eq/kg)  =  -7.550e-12
                    Total carbon (mol/kg)  =   0.000e+00
                       Total CO2 (mol/kg)  =   0.000e+00
                         Temperature (°C)  =  20.00
                  Electrical balance (eq)  =   9.506e-14
 Percent error, 100*(Cat-|An|)/(Cat+|An|)  =   0.00
                               Iterations  =   2
                                  Total H  = 1.110124e+02
                                  Total O  = 5.550622e+01

----------------------------Distribution of species----------------------------

                                               Log       Log       Log    mole V
   Species          Molality    Activity  Molality  Activity     Gamma   cmł/mol

   H+              1.704e-07   1.258e-07    -6.769    -6.900    -0.132      0.00
   OH-             8.602e-08   5.391e-08    -7.065    -7.268    -0.203     (0)  
   H2O             5.551e+01   9.906e-01     1.744    -0.004     0.000     18.05
Ca            1.840e-01
   Ca+2            1.840e-01   4.765e-02    -0.735    -1.322    -0.587    -16.93
   CaOH+           8.437e-08   6.228e-08    -7.074    -7.206    -0.132     (0)  
Cl            3.680e-01
   Cl-             3.680e-01   2.376e-01    -0.434    -0.624    -0.190     18.54
H(0)          2.075e-25
   H2              1.038e-25   1.178e-25   -24.984   -24.929     0.055     28.61
O(0)          0.000e+00
   O2              0.000e+00   0.000e+00   -44.227   -44.172     0.055     29.98

------------------------------Saturation indices-------------------------------

  Phase               SI** log IAP   log K(293 K,   1 atm)

  H2(g)           -21.84    -24.93   -3.09  H2
  H2O(g)           -1.64     -0.00    1.63  H2O
  O2(g)           -41.32    -44.17   -2.85  O2

**For a gas, SI = log10(fugacity). Fugacity = pressure * phi / 1 atm.
  For ideal gases, phi = 1.

Initial solution 5.	

-----------------------------Solution composition------------------------------

	Elements           Molality       Moles

	Ca                2.315e-01   2.315e-01
	Cl                4.630e-01   4.630e-01

----------------------------Description of solution----------------------------

[...]
   H2O             5.551e+01   9.919e-01     1.744    -0.004     0.000     18.05
H(0)          0.000e+00
   H2              0.000e+00   0.000e+00   -43.685   -43.619     0.066     28.61
La            1.268e-01
   La+3            9.355e-02   7.619e-03    -1.029    -2.118    -1.089     (0)  
   LaNO3+2         3.325e-02   5.941e-03    -1.478    -2.226    -0.748     (0)  
N(-3)         0.000e+00
   NH4+            0.000e+00   0.000e+00   -55.340   -55.586    -0.247     18.28
   NH3             0.000e+00   0.000e+00   -57.872   -57.806     0.066     24.19
N(0)          1.114e-07
   N2              5.569e-08   6.485e-08    -7.254    -7.188     0.066     29.29
N(3)          1.480e-12
   NO2-            1.480e-12   8.745e-13   -11.830   -12.058    -0.229     25.39
N(5)          3.804e-01
   NO3-            3.471e-01   2.051e-01    -0.459    -0.688    -0.229     (0)  
   LaNO3+2         3.325e-02   5.941e-03    -1.478    -2.226    -0.748     (0)  
O(0)          2.782e-07
   O2              1.391e-07   1.620e-07    -6.857    -6.791     0.066     29.98

------------------------------Saturation indices-------------------------------

  Phase               SI** log IAP   log K(293 K,   1 atm)

  H2(g)           -40.53    -43.62   -3.09  H2
  H2O(g)           -1.64     -0.00    1.63  H2O
  N2(g)            -4.04     -7.19   -3.14  N2
  NH3(g)          -59.71    -57.81    1.90  NH3
  O2(g)            -3.94     -6.79   -2.85  O2

**For a gas, SI = log10(fugacity). Fugacity = pressure * phi / 1 atm.
  For ideal gases, phi = 1.

Reaction step 5.

Using solution 1.	
Using reaction 1.	

Reaction 1.	

	  1.600e-01 moles of the following reaction have been added:

	                 Relative
	Reactant            moles

	La(NO3)3             1.00000

	                 Relative
	Element             moles
	La                   1.00000
	N                    3.00000
	O                    9.00000

-----------------------------Solution composition------------------------------

	Elements           Molality       Moles

	La                1.600e-01   1.600e-01
	N                 4.800e-01   4.800e-01

----------------------------Description of solution----------------------------

                                       pH  =   7.183      Charge balance
                                       pe  =  13.074      Adjusted to redox equilibrium
       Specific Conductance (µS/cm, 20°C)  = 33228
                          Density (g/cmł)  =   1.05010
                               Volume (L)  =   1.00180
                        Viscosity (mPa s)  =   1.00943
                        Activity of water  =   0.990
                           Ionic strength  =   8.154e-01
                       Mass of water (kg)  =   1.000e+00
                 Total alkalinity (eq/kg)  =   8.751e-08
                    Total carbon (mol/kg)  =   0.000e+00
                       Total CO2 (mol/kg)  =   0.000e+00
                         Temperature (°C)  =  20.00
                  Electrical balance (eq)  =   3.155e-08
 Percent error, 100*(Cat-|An|)/(Cat+|An|)  =   0.00
                               Iterations  =  15
                                  Total H  = 1.110124e+02
                                  Total O  = 5.694622e+01

----------------------------Distribution of species----------------------------

                                               Log       Log       Log    mole V
   Species          Molality    Activity  Molality  Activity     Gamma   cmł/mol

   OH-             1.732e-07   1.033e-07    -6.761    -6.986    -0.224     (0)  
   H+              8.571e-08   6.558e-08    -7.067    -7.183    -0.116      0.00
   H2O             5.551e+01   9.899e-01     1.744    -0.004     0.000     18.05
H(0)          0.000e+00
   H2              0.000e+00   0.000e+00   -43.724   -43.642     0.082     28.61
La            1.600e-01
   La+3            1.118e-01   8.440e-03    -0.952    -2.074    -1.122     (0)  
   LaNO3+2         4.821e-02   7.938e-03    -1.317    -2.100    -0.783     (0)  
N(-3)         0.000e+00
   NH4+            0.000e+00   0.000e+00   -55.338   -55.601    -0.262     18.33
   NH3             0.000e+00   0.000e+00   -57.900   -57.818     0.082     24.19
N(0)          1.196e-07
   N2              5.978e-08   7.212e-08    -7.223    -7.142     0.082     29.29
N(3)          1.748e-12
   NO2-            1.748e-12   1.002e-12   -11.757   -11.999    -0.242     25.47
N(5)          4.800e-01
   NO3-            4.318e-01   2.474e-01    -0.365    -0.607    -0.242     (0)  
   LaNO3+2         4.821e-02   7.938e-03    -1.317    -2.100    -0.783     (0)  
O(0)          2.978e-07
   O2              1.489e-07   1.796e-07    -6.827    -6.746     0.082     29.98

------------------------------Saturation indices-------------------------------

  Phase               SI** log IAP   log K(293 K,   1 atm)

  H2(g)           -40.55    -43.64   -3.09  H2
  H2O(g)           -1.64     -0.00    1.63  H2O
  N2(g)            -4.00     -7.14   -3.14  N2
  NH3(g)          -59.72    -57.82    1.90  NH3
  O2(g)            -3.89     -6.75   -2.85  O2

**For a gas, SI = log10(fugacity). Fugacity = pressure * phi / 1 atm.
  For ideal gases, phi = 1.

Reaction step 6.

Using solution 1.	
Using reaction 1.	

Reaction 1.	

	  1.936e-01 moles of the following reaction have been added:

	                 Relative
	Reactant            moles

	La(NO3)3             1.00000

	                 Relative
	Element             moles
	La                   1.00000
	N                    3.00000
	O                    9.00000

-----------------------------Solution composition------------------------------

	Elements           Molality       Moles

	La                1.936e-01   1.936e-01
	N                 5.808e-01   5.808e-01

----------------------------Description of solution----------------------------

                                       pH  =   7.184      Charge balance
                                       pe  =  13.083      Adjusted to redox equilibrium
       Specific Conductance (µS/cm, 20°C)  = 38842
                          Density (g/cmł)  =   1.06100
                               Volume (L)  =   1.00180
                        Viscosity (mPa s)  =   1.01002
                        Activity of water  =   0.988
                           Ionic strength  =   9.665e-01
                       Mass of water (kg)  =   1.000e+00
                 Total alkalinity (eq/kg)  =   9.362e-08
                    Total carbon (mol/kg)  =   0.000e+00
                       Total CO2 (mol/kg)  =   0.000e+00
                         Temperature (°C)  =  20.00
                  Electrical balance (eq)  =   3.154e-08
 Percent error, 100*(Cat-|An|)/(Cat+|An|)  =   0.00
                               Iterations  =  15
                                  Total H  = 1.110124e+02
                                  Total O  = 5.724862e+01

----------------------------Distribution of species----------------------------

                                               Log       Log       Log    mole V
   Species          Molality    Activity  Molality  Activity     Gamma   cmł/mol

   OH-             1.769e-07   1.033e-07    -6.752    -6.986    -0.234     (0)  
   H+              8.323e-08   6.550e-08    -7.080    -7.184    -0.104      0.00
   H2O             5.551e+01   9.879e-01     1.744    -0.005     0.000     18.05
H(0)          0.000e+00
   H2              0.000e+00   0.000e+00   -43.758   -43.662     0.097     28.61
La            1.936e-01
   La+3            1.286e-01   9.153e-03    -0.891    -2.038    -1.148     (0)  
   LaNO3+2         6.502e-02   1.003e-02    -1.187    -1.999    -0.812     (0)  
N(-3)         0.000e+00
   NH4+            0.000e+00   0.000e+00   -55.335   -55.611    -0.275     18.37
   NH3             0.000e+00   0.000e+00   -57.924   -57.827     0.097     24.19
N(0)          1.266e-07
   N2              6.328e-08   7.906e-08    -7.199    -7.102     0.097     29.29
N(3)          2.001e-12
   NO2-            2.001e-12   1.118e-12   -11.699   -11.952    -0.253     25.54
N(5)          5.808e-01
   NO3-            5.158e-01   2.881e-01    -0.288    -0.540    -0.253     (0)  
   LaNO3+2         6.502e-02   1.003e-02    -1.187    -1.999    -0.812     (0)  
O(0)          3.131e-07
   O2              1.566e-07   1.956e-07    -6.805    -6.709     0.097     29.98

------------------------------Saturation indices-------------------------------

  Phase               SI** log IAP   log K(293 K,   1 atm)

  H2(g)           -40.57    -43.66   -3.09  H2
  H2O(g)           -1.64     -0.01    1.63  H2O
  N2(g)            -3.96     -7.10   -3.14  N2
  NH3(g)          -59.73    -57.83    1.90  NH3
  O2(g)            -3.85     -6.71   -2.85  O2

**For a gas, SI = log10(fugacity). Fugacity = pressure * phi / 1 atm.
  For ideal gases, phi = 1.

Reaction step 7.

Using solution 1.	
Using reaction 1.	

Reaction 1.	

	  2.277e-01 moles of the following reaction have been added:

	                 Relative
	Reactant            moles

	La(NO3)3             1.00000

	                 Relative
	Element             moles
	La                   1.00000
	N                    3.00000
	O                    9.00000

-----------------------------Solution composition------------------------------

	Elements           Molality       Moles

	La                2.277e-01   2.277e-01
	N                 6.831e-01   6.831e-01

----------------------------Description of solution----------------------------

                                       pH  =   7.183      Charge balance
                                       pe  =  13.092      Adjusted to redox equilibrium
       Specific Conductance (µS/cm, 20°C)  = 44093
                          Density (g/cmł)  =   1.07206
                               Volume (L)  =   1.00180
                        Viscosity (mPa s)  =   1.01054
                        Activity of water  =   0.986
                           Ionic strength  =   1.116e+00
                       Mass of water (kg)  =   1.000e+00
                 Total alkalinity (eq/kg)  =   9.844e-08
                    Total carbon (mol/kg)  =   0.000e+00
                       Total CO2 (mol/kg)  =   0.000e+00
                         Temperature (°C)  =  20.00
                  Electrical balance (eq)  =   3.151e-08
 Percent error, 100*(Cat-|An|)/(Cat+|An|)  =   0.00
                               Iterations  =  15
                                  Total H  = 1.110124e+02
                                  Total O  = 5.755552e+01

----------------------------Distribution of species----------------------------

                                               Log       Log       Log    mole V
   Species          Molality    Activity  Molality  Activity     Gamma   cmł/mol

   OH-             1.793e-07   1.028e-07    -6.746    -6.988    -0.242     (0)  
   H+              8.087e-08   6.565e-08    -7.092    -7.183    -0.091      0.00
   H2O             5.551e+01   9.859e-01     1.744    -0.006     0.000     18.05
H(0)          0.000e+00
   H2              0.000e+00   0.000e+00   -43.790   -43.678     0.112     28.61
La            2.277e-01
   La+3            1.442e-01   9.785e-03    -0.841    -2.009    -1.168     (0)  
   LaNO3+2         8.353e-02   1.220e-02    -1.078    -1.914    -0.835     (0)  
N(-3)         0.000e+00
   NH4+            0.000e+00   0.000e+00   -55.330   -55.616    -0.286     18.41
   NH3             0.000e+00   0.000e+00   -57.946   -57.834     0.112     24.19
N(0)          1.330e-07
   N2              6.649e-08   8.597e-08    -7.177    -7.066     0.112     29.29
N(3)          2.243e-12
   NO2-            2.243e-12   1.227e-12   -11.649   -11.911    -0.262     25.61
N(5)          6.831e-01
   NO3-            5.996e-01   3.279e-01    -0.222    -0.484    -0.262     (0)  
   LaNO3+2         8.353e-02   1.220e-02    -1.078    -1.914    -0.835     (0)  
O(0)          3.254e-07
   O2              1.627e-07   2.103e-07    -6.789    -6.677     0.112     29.98

------------------------------Saturation indices-------------------------------

  Phase               SI** log IAP   log K(293 K,   1 atm)

  H2(g)           -40.59    -43.68   -3.09  H2
  H2O(g)           -1.64     -0.01    1.63  H2O
  N2(g)            -3.92     -7.07   -3.14  N2
  NH3(g)          -59.74    -57.83    1.90  NH3
  O2(g)            -3.82     -6.68   -2.85  O2

**For a gas, SI = log10(fugacity). Fugacity = pressure * phi / 1 atm.
  For ideal gases, phi = 1.

Reaction step 8.

Using solution 1.	
Using reaction 1.	

Reaction 1.	

	  2.625e-01 moles of the following reaction have been added:

	                 Relative
	Reactant            moles

	La(NO3)3             1.00000

	                 Relative
	Element             moles
	La                   1.00000
	N                    3.00000
	O                    9.00000

-----------------------------Solution composition------------------------------

	Elements           Molality       Moles

	La                2.625e-01   2.625e-01
	N                 7.875e-01   7.875e-01

----------------------------Description of solution----------------------------

                                       pH  =   7.181      Charge balance
                                       pe  =  13.102      Adjusted to redox equilibrium
       Specific Conductance (µS/cm, 20°C)  = 49136
                          Density (g/cmł)  =   1.08334
                               Volume (L)  =   1.00180
                        Viscosity (mPa s)  =   1.01103
                        Activity of water  =   0.984
                           Ionic strength  =   1.264e+00
                       Mass of water (kg)  =   1.000e+00
                 Total alkalinity (eq/kg)  =   1.022e-07
                    Total carbon (mol/kg)  =   0.000e+00
                       Total CO2 (mol/kg)  =   0.000e+00
                         Temperature (°C)  =  20.00
                  Electrical balance (eq)  =   3.148e-08
 Percent error, 100*(Cat-|An|)/(Cat+|An|)  =   0.00
                               Iterations  =  15
                                  Total H  = 1.110124e+02
                                  Total O  = 5.786872e+01

----------------------------Distribution of species----------------------------

                                               Log       Log       Log    mole V
   Species          Molality    Activity  Molality  Activity     Gamma   cmł/mol

   OH-             1.808e-07   1.021e-07    -6.743    -6.991    -0.248     (0)  
   H+              7.859e-08   6.599e-08    -7.105    -7.181    -0.076      0.00
   H2O             5.551e+01   9.839e-01     1.744    -0.007     0.000     18.05
H(0)          0.000e+00
   H2              0.000e+00   0.000e+00   -43.819   -43.693     0.126     28.61
La            2.625e-01
   La+3            1.588e-01   1.035e-02    -0.799    -1.985    -1.186     (0)  
   LaNO3+2         1.037e-01   1.445e-02    -0.984    -1.840    -0.856     (0)  
N(-3)         0.000e+00
   NH4+            0.000e+00   0.000e+00   -55.323   -55.619    -0.296     18.45
   NH3             0.000e+00   0.000e+00   -57.965   -57.839     0.126     24.19
N(0)          1.392e-07
   N2              6.960e-08   9.311e-08    -7.157    -7.031     0.126     29.29
N(3)          2.479e-12
   NO2-            2.479e-12   1.331e-12   -11.606   -11.876    -0.270     25.67
N(5)          7.875e-01
   NO3-            6.838e-01   3.672e-01    -0.165    -0.435    -0.270     (0)  
   LaNO3+2         1.037e-01   1.445e-02    -0.984    -1.840    -0.856     (0)  
O(0)          3.350e-07
   O2              1.675e-07   2.241e-07    -6.776    -6.650     0.126     29.98

------------------------------Saturation indices-------------------------------

  Phase               SI** log IAP   log K(293 K,   1 atm)

  H2(g)           -40.60    -43.69   -3.09  H2
  H2O(g)           -1.64     -0.01    1.63  H2O
  N2(g)            -3.89     -7.03   -3.14  N2
  NH3(g)          -59.74    -57.84    1.90  NH3
  O2(g)            -3.80     -6.65   -2.85  O2

**For a gas, SI = log10(fugacity). Fugacity = pressure * phi / 1 atm.
  For ideal gases, phi = 1.

Reaction step 9.

Using solution 1.	
Using reaction 1.	

Reaction 1.	

	  2.979e-01 moles of the following reaction have been added:

	                 Relative
	Reactant            moles

	La(NO3)3             1.00000

	                 Relative
	Element             moles
	La                   1.00000
	N                    3.00000
	O                    9.00000

-----------------------------Solution composition------------------------------

	Elements           Molality       Moles

	La                2.979e-01   2.979e-01
	N                 8.937e-01   8.937e-01

----------------------------Description of solution----------------------------

                                       pH  =   7.177      Charge balance
                                       pe  =  13.112      Adjusted to redox equilibrium
       Specific Conductance (µS/cm, 20°C)  = 54031
                          Density (g/cmł)  =   1.09482
                               Volume (L)  =   1.00180
                        Viscosity (mPa s)  =   1.01148
                        Activity of water  =   0.982
                           Ionic strength  =   1.411e+00
                       Mass of water (kg)  =   1.000e+00
                 Total alkalinity (eq/kg)  =   1.051e-07
                    Total carbon (mol/kg)  =   0.000e+00
                       Total CO2 (mol/kg)  =   0.000e+00
                         Temperature (°C)  =  20.00
                  Electrical balance (eq)  =   3.144e-08
 Percent error, 100*(Cat-|An|)/(Cat+|An|)  =   0.00
                               Iterations  =  15
                                  Total H  = 1.110124e+02
                                  Total O  = 5.818732e+01

----------------------------Distribution of species----------------------------

                                               Log       Log       Log    mole V
   Species          Molality    Activity  Molality  Activity     Gamma   cmł/mol

   OH-             1.815e-07   1.011e-07    -6.741    -6.995    -0.254     (0)  
   H+              7.643e-08   6.650e-08    -7.117    -7.177    -0.060      0.00
   H2O             5.551e+01   9.819e-01     1.744    -0.008     0.000     18.05
H(0)          0.000e+00
   H2              0.000e+00   0.000e+00   -43.847   -43.706     0.141     28.61
La            2.979e-01
   La+3            1.726e-01   1.087e-02    -0.763    -1.964    -1.201     (0)  
   LaNO3+2         1.253e-01   1.678e-02    -0.902    -1.775    -0.873     (0)  
N(-3)         0.000e+00
   NH4+            0.000e+00   0.000e+00   -55.314   -55.618    -0.304     18.49
   NH3             0.000e+00   0.000e+00   -57.983   -57.842     0.141     24.19
N(0)          1.454e-07
   N2              7.268e-08   1.006e-07    -7.139    -6.997     0.141     29.29
N(3)          2.708e-12
   NO2-            2.708e-12   1.431e-12   -11.567   -11.845    -0.277     25.73
N(5)          8.937e-01
   NO3-            7.684e-01   4.059e-01    -0.114    -0.392    -0.277     (0)  
   LaNO3+2         1.253e-01   1.678e-02    -0.902    -1.775    -0.873     (0)  
O(0)          3.426e-07
   O2              1.713e-07   2.371e-07    -6.766    -6.625     0.141     29.98

------------------------------Saturation indices-------------------------------

  Phase               SI** log IAP   log K(293 K,   1 atm)

  H2(g)           -40.62    -43.71   -3.09  H2
  H2O(g)           -1.64     -0.01    1.63  H2O
  N2(g)            -3.85     -7.00   -3.14  N2
  NH3(g)          -59.74    -57.84    1.90  NH3
  O2(g)            -3.77     -6.63   -2.85  O2

**For a gas, SI = log10(fugacity). Fugacity = pressure * phi / 1 atm.
  For ideal gases, phi = 1.

------------------
End of simulation.
------------------

------------------------------------
Reading input data for simulation 7.
------------------------------------

-------------------------------
End of Run after 0.848 Seconds.
-------------------------------

