WARNING: Database file from DATABASE keyword is used; command line argument ignored.
   Input file: saunders
  Output file: saunders.out
Database file: ../database/wateq4f.dat

------------------
Reading data base.
------------------

	SOLUTION_MASTER_SPECIES
	SOLUTION_SPECIES
	PHASES
	EXCHANGE_MASTER_SPECIES
	EXCHANGE_SPECIES
	SURFACE_MASTER_SPECIES
	SURFACE_SPECIES
	RATES
	END
------------------------------------
Reading input data for simulation 1.
------------------------------------

	DATABASE ../database/wateq4f.dat
	SELECTED_OUTPUT 101
	    file                 saunders_101.sel
	USER_PUNCH 101
	    headings Mu SC
	    start
	10 PUNCH STR_F$(MU, 20, 12)
	20 PUNCH STR_F$(SC, 20, 10)
	    end
	KNOBS
		logfile
	SOLUTION 0  Well no. 2 of Lee (1985), Coastal Plain, transport and mix withtemp17.5
		pH		7.55	
		pe 		2
		units 		mg/l
		Ca		58
		Mg		4.9
		Na		62
		K		1.5
		Fe		.66
		Cl		100
		C		210
		S(6)		5.8
		U		.005
	END
-------------------------------------------
Beginning of initial solution calculations.
-------------------------------------------

Initial solution 0.	Well no. 2 of Lee (1985), Coastal Plain, transport and mix withtemp17.5

-----------------------------Solution composition------------------------------

	Elements           Molality       Moles

	C                 3.443e-03   3.443e-03
	Ca                1.448e-03   1.448e-03
	Cl                2.822e-03   2.822e-03
	Fe                1.182e-05   1.182e-05
	K                 3.838e-05   3.838e-05
	Mg                2.016e-04   2.016e-04
	Na                2.698e-03   2.698e-03
	S(6)              6.040e-05   6.040e-05
	U                 2.102e-08   2.102e-08

----------------------------Description of solution----------------------------

                                       pH  =   7.550    
                                       pe  =   2.000    
                        Activity of water  =   1.000
                 Ionic strength (mol/kgw)  =   7.706e-03
                       Mass of water (kg)  =   1.000e+00
                 Total alkalinity (eq/kg)  =   3.276e-03
                       Total CO2 (mol/kg)  =   3.443e-03
                         Temperature (°C)  =  25.00
                  Electrical balance (eq)  =  -1.608e-04
 Percent error, 100*(Cat-|An|)/(Cat+|An|)  =  -1.33
                               Iterations  =   9
                                  Total H  = 1.110157e+02
                                  Total O  = 5.551661e+01

----------------------------Distribution of species----------------------------

                                               Log       Log       Log    mole V
   Species          Molality    Activity  Molality  Activity     Gamma   cm³/mol

   OH-             3.900e-07   3.551e-07    -6.409    -6.450    -0.041     (0)  
   H+              3.059e-08   2.818e-08    -7.514    -7.550    -0.036      0.00
   H2O             5.551e+01   9.998e-01     1.744    -0.000     0.000     18.07
C(-4)         0.000e+00
   CH4             0.000e+00   0.000e+00   -55.743   -55.742     0.001     (0)  
C(4)          3.443e-03
   HCO3-           3.191e-03   2.919e-03    -2.496    -2.535    -0.039     (0)  
   CO2             1.847e-04   1.850e-04    -3.734    -3.733     0.001     (0)  
   CaHCO3+         3.961e-05   3.628e-05    -4.402    -4.440    -0.038     (0)  
   CaCO3           7.915e-06   7.929e-06    -5.102    -5.101     0.001     (0)  
   CO3-2           6.940e-06   4.857e-06    -5.159    -5.314    -0.155     (0)  
   MgHCO3+         5.128e-06   4.675e-06    -5.290    -5.330    -0.040     (0)  
   NaHCO3          4.029e-06   4.036e-06    -5.395    -5.394     0.001     (0)  
   FeHCO3+         1.864e-06   1.700e-06    -5.729    -5.769    -0.040     (0)  
   FeCO3           6.775e-07   6.787e-07    -6.169    -6.168     0.001     (0)  
   MgCO3           6.333e-07   6.344e-07    -6.198    -6.198     0.001     (0)  
   NaCO3-          2.431e-07   2.224e-07    -6.614    -6.653    -0.039     (0)  
   UO2(CO3)2-2     1.287e-08   8.908e-09    -7.890    -8.050    -0.160     (0)  
   UO2(CO3)3-4     8.051e-09   1.846e-09    -8.094    -8.734    -0.640     (0)  
   UO2CO3          7.809e-11   7.823e-11   -10.107   -10.107     0.001     (0)  
   (UO2)3(CO3)6-6   1.944e-20   7.068e-22   -19.711   -21.151    -1.439     (0)  
   UO2(CO3)3-5     3.595e-23   3.599e-24   -22.444   -23.444    -1.000     (0)  
   U(CO3)4-4       5.040e-28   1.155e-28   -27.298   -27.937    -0.640     (0)  
   U(CO3)5-6       1.943e-31   7.065e-33   -30.712   -32.151    -1.439     (0)  
Ca            1.448e-03
   Ca+2            1.393e-03   9.745e-04    -2.856    -3.011    -0.155     (0)  
   CaHCO3+         3.961e-05   3.628e-05    -4.402    -4.440    -0.038     (0)  
   CaCO3           7.915e-06   7.929e-06    -5.102    -5.101     0.001     (0)  
   CaSO4           6.996e-06   7.008e-06    -5.155    -5.154     0.001     (0)  
   CaOH+           6.264e-09   5.737e-09    -8.203    -8.241    -0.038     (0)  
   CaHSO4+         1.269e-12   1.157e-12   -11.897   -11.937    -0.040     (0)  
Cl            2.822e-03
   Cl-             2.822e-03   2.570e-03    -2.549    -2.590    -0.041     (0)  
   FeCl+           2.262e-08   2.067e-08    -7.646    -7.685    -0.039     (0)  
   UO2Cl+          1.574e-17   1.435e-17   -16.803   -16.843    -0.040     (0)  
   FeCl+2          6.192e-18   4.318e-18   -17.208   -17.365    -0.157     (0)  
   FeCl2+          5.436e-20   4.958e-20   -19.265   -19.305    -0.040     (0)  
   UO2Cl2          1.978e-21   1.981e-21   -20.704   -20.703     0.001     (0)  
   FeCl3           1.272e-23   1.274e-23   -22.896   -22.895     0.001     (0)  
   UCl+3           0.000e+00   0.000e+00   -40.093   -40.453    -0.360     (0)  
Fe(2)         1.095e-05
   Fe+2            8.279e-06   5.825e-06    -5.082    -5.235    -0.153     (0)  
   FeHCO3+         1.864e-06   1.700e-06    -5.729    -5.769    -0.040     (0)  
   FeCO3           6.775e-07   6.787e-07    -6.169    -6.168     0.001     (0)  
   FeOH+           7.151e-08   6.535e-08    -7.146    -7.185    -0.039     (0)  
   FeSO4           3.727e-08   3.734e-08    -7.429    -7.428     0.001     (0)  
   FeCl+           2.262e-08   2.067e-08    -7.646    -7.685    -0.039     (0)  
   Fe(OH)2         1.970e-11   1.973e-11   -10.706   -10.705     0.001     (0)  
   Fe(OH)3-        2.846e-14   2.601e-14   -13.546   -13.585    -0.039     (0)  
   FeHSO4+         7.584e-15   6.917e-15   -14.120   -14.160    -0.040     (0)  
Fe(3)         8.707e-07
   Fe(OH)3         6.828e-07   6.840e-07    -6.166    -6.165     0.001     (0)  
   Fe(OH)2+        1.636e-07   1.497e-07    -6.786    -6.825    -0.039     (0)  
   Fe(OH)4-        2.420e-08   2.213e-08    -7.616    -7.655    -0.039     (0)  
   FeOH+2          1.827e-11   1.274e-11   -10.738   -10.895    -0.157     (0)  
   Fe+3            1.162e-16   5.563e-17   -15.935   -16.255    -0.320     (0)  
   FeSO4+          2.406e-17   2.199e-17   -16.619   -16.658    -0.039     (0)  
   FeCl+2          6.192e-18   4.318e-18   -17.208   -17.365    -0.157     (0)  
   FeCl2+          5.436e-20   4.958e-20   -19.265   -19.305    -0.040     (0)  
   Fe2(OH)2+4      1.906e-20   4.370e-21   -19.720   -20.360    -0.640     (0)  
   Fe(SO4)2-       1.901e-20   1.734e-20   -19.721   -19.761    -0.040     (0)  
   FeCl3           1.272e-23   1.274e-23   -22.896   -22.895     0.001     (0)  
   FeHSO4+2        2.398e-24   1.659e-24   -23.620   -23.780    -0.160     (0)  
   Fe3(OH)4+5      1.365e-24   1.367e-25   -23.865   -24.864    -1.000     (0)  
H(0)          1.123e-22
   H2              5.613e-23   5.623e-23   -22.251   -22.250     0.001     (0)  
K             3.838e-05
   K+              3.837e-05   3.495e-05    -4.416    -4.457    -0.041     (0)  
   KSO4-           9.677e-09   8.851e-09    -8.014    -8.053    -0.039     (0)  
Mg            2.016e-04
   Mg+2            1.947e-04   1.369e-04    -3.711    -3.864    -0.153     (0)  
   MgHCO3+         5.128e-06   4.675e-06    -5.290    -5.330    -0.040     (0)  
   MgSO4           1.155e-06   1.157e-06    -5.938    -5.937     0.001     (0)  
   MgCO3           6.333e-07   6.344e-07    -6.198    -6.198     0.001     (0)  
   MgOH+           1.923e-08   1.763e-08    -7.716    -7.754    -0.038     (0)  
Na            2.698e-03
   Na+             2.693e-03   2.459e-03    -2.570    -2.609    -0.040     (0)  
   NaHCO3          4.029e-06   4.036e-06    -5.395    -5.394     0.001     (0)  
   NaSO4-          4.856e-07   4.442e-07    -6.314    -6.352    -0.039     (0)  
   NaCO3-          2.431e-07   2.224e-07    -6.614    -6.653    -0.039     (0)  
O(0)          0.000e+00
   O2              0.000e+00   0.000e+00   -47.881   -47.880     0.001     (0)  
S(6)          6.040e-05
   SO4-2           5.172e-05   3.604e-05    -4.286    -4.443    -0.157     (0)  
   CaSO4           6.996e-06   7.008e-06    -5.155    -5.154     0.001     (0)  
   MgSO4           1.155e-06   1.157e-06    -5.938    -5.937     0.001     (0)  
   NaSO4-          4.856e-07   4.442e-07    -6.314    -6.352    -0.039     (0)  
   FeSO4           3.727e-08   3.734e-08    -7.429    -7.428     0.001     (0)  
   KSO4-           9.677e-09   8.851e-09    -8.014    -8.053    -0.039     (0)  
   HSO4-           1.082e-10   9.877e-11    -9.966   -10.005    -0.040     (0)  
   CaHSO4+         1.269e-12   1.157e-12   -11.897   -11.937    -0.040     (0)  
   FeHSO4+         7.584e-15   6.917e-15   -14.120   -14.160    -0.040     (0)  
   UO2SO4          1.919e-16   1.922e-16   -15.717   -15.716     0.001     (0)  
   FeSO4+          2.406e-17   2.199e-17   -16.619   -16.658    -0.039     (0)  
   UO2(SO4)2-2     9.786e-20   6.771e-20   -19.009   -19.169    -0.160     (0)  
   Fe(SO4)2-       1.901e-20   1.734e-20   -19.721   -19.761    -0.040     (0)  
   FeHSO4+2        2.398e-24   1.659e-24   -23.620   -23.780    -0.160     (0)  
   USO4+2          5.175e-38   3.581e-38   -37.286   -37.446    -0.160     (0)  
   U(SO4)2         1.072e-38   1.074e-38   -37.970   -37.969     0.001     (0)  
U(3)          0.000e+00
   U+3             0.000e+00   0.000e+00   -50.019   -50.379    -0.360     (0)  
U(4)          1.313e-18
   U(OH)4          1.312e-18   1.315e-18   -17.882   -17.881     0.001     (0)  
   U(OH)3+         1.486e-22   1.355e-22   -21.828   -21.868    -0.040     (0)  
   U(OH)2+2        2.552e-27   1.766e-27   -26.593   -26.753    -0.160     (0)  
   U(CO3)4-4       5.040e-28   1.155e-28   -27.298   -27.937    -0.640     (0)  
   U(CO3)5-6       1.943e-31   7.065e-33   -30.712   -32.151    -1.439     (0)  
   UOH+3           6.122e-33   2.673e-33   -32.213   -32.573    -0.360     (0)  
   USO4+2          5.175e-38   3.581e-38   -37.286   -37.446    -0.160     (0)  
   U(SO4)2         1.072e-38   1.074e-38   -37.970   -37.969     0.001     (0)  
   U+4             1.140e-39   2.613e-40   -38.943   -39.583    -0.640     (0)  
   UCl+3           0.000e+00   0.000e+00   -40.093   -40.453    -0.360     (0)  
   U6(OH)15+9      0.000e+00   0.000e+00  -138.210  -141.448    -3.238     (0)  
U(5)          1.279e-15
   UO2+            1.279e-15   1.167e-15   -14.893   -14.933    -0.040     (0)  
   UO2(CO3)3-5     3.595e-23   3.599e-24   -22.444   -23.444    -1.000     (0)  
U(6)          2.102e-08
   UO2(CO3)2-2     1.287e-08   8.908e-09    -7.890    -8.050    -0.160     (0)  
   UO2(CO3)3-4     8.051e-09   1.846e-09    -8.094    -8.734    -0.640     (0)  
   UO2CO3          7.809e-11   7.823e-11   -10.107   -10.107     0.001     (0)  
   UO2(OH)3-       1.166e-11   1.064e-11   -10.933   -10.973    -0.040     (0)  
   UO2OH+          9.266e-13   8.451e-13   -12.033   -12.073    -0.040     (0)  
   UO2+2           5.457e-15   3.776e-15   -14.263   -14.423    -0.160     (0)  
   UO2SO4          1.919e-16   1.922e-16   -15.717   -15.716     0.001     (0)  
   UO2Cl+          1.574e-17   1.435e-17   -16.803   -16.843    -0.040     (0)  
   UO2(OH)4-2      8.642e-18   5.980e-18   -17.063   -17.223    -0.160     (0)  
   UO2(SO4)2-2     9.786e-20   6.771e-20   -19.009   -19.169    -0.160     (0)  
   (UO2)2(OH)2+2   6.220e-20   4.304e-20   -19.206   -19.366    -0.160     (0)  
   (UO2)3(CO3)6-6   1.944e-20   7.068e-22   -19.711   -21.151    -1.439     (0)  
   UO2Cl2          1.978e-21   1.981e-21   -20.704   -20.703     0.001     (0)  
   (UO2)3(OH)5+    9.345e-22   8.523e-22   -21.029   -21.069    -0.040     (0)  
   (UO2)3(OH)7-    4.173e-22   3.806e-22   -21.380   -21.420    -0.040     (0)  
   (UO2)2OH+3      2.311e-24   1.009e-24   -23.636   -23.996    -0.360     (0)  
   (UO2)3(OH)4+2   1.551e-25   1.073e-25   -24.809   -24.969    -0.160     (0)  
   (UO2)4(OH)7+    1.984e-27   1.809e-27   -26.703   -26.743    -0.040     (0)  

------------------------------Saturation indices-------------------------------

  Phase               SI** log IAP   log K(298 K,   1 atm)

  Anhydrite        -3.09     -7.45   -4.36  CaSO4
  Aragonite         0.01     -8.32   -8.34  CaCO3
  Artinite         -7.54      2.06    9.60  MgCO3:Mg(OH)2:3H2O
  B-UO2(OH)2       -4.87      0.68    5.54  UO2(OH)2
  Brucite          -5.60     11.24   16.84  Mg(OH)2
  Calcite           0.15     -8.32   -8.48  CaCO3
  CH4(g)          -52.88    -55.74   -2.86  CH4
  CO2(g)           -2.26     -3.73   -1.47  CO2
  Dolomite         -0.41    -17.50  -17.09  CaMg(CO3)2
  Dolomite(d)      -0.96    -17.50  -16.54  CaMg(CO3)2
  Epsomite         -6.17     -8.31   -2.14  MgSO4:7H2O
  Fe(OH)2.7Cl.3     6.39      3.35   -3.04  Fe(OH)2.7Cl0.3
  Fe(OH)3(a)        1.50      6.40    4.89  Fe(OH)3
  Fe3(OH)8          2.43     22.66   20.22  Fe3(OH)8
  Goethite          7.40      6.40   -1.00  FeOOH
  Gummite          -9.73      0.68   10.40  UO3
  Gypsum           -2.87     -7.45   -4.58  CaSO4:2H2O
  H2(g)           -19.10    -22.25   -3.15  H2
  H2O(g)           -1.51     -0.00    1.51  H2O
  Halite           -6.78     -5.20    1.58  NaCl
  Hematite         16.80     12.79   -4.01  Fe2O3
  Huntite          -5.89    -35.86  -29.97  CaMg3(CO3)4
  Hydromagnesite  -16.71    -25.47   -8.76  Mg5(CO3)4(OH)2:4H2O
  Jarosite(ss)     -7.54    -17.37   -9.83  (K0.77Na0.03H0.2)Fe3(SO4)2(OH)6
  Jarosite-K       -7.60    -16.81   -9.21  KFe3(SO4)2(OH)6
  Jarosite-Na      -9.68    -14.96   -5.28  NaFe3(SO4)2(OH)6
  JarositeH       -14.51    -19.90   -5.39  (H3O)Fe3(SO4)2(OH)6
  Maghemite         6.40     12.79    6.39  Fe2O3
  Magnesite        -1.15     -9.18   -8.03  MgCO3
  Magnetite        18.92     22.66    3.74  Fe3O4
  Melanterite      -7.47     -9.68   -2.21  FeSO4:7H2O
  Mirabilite       -8.55     -9.66   -1.11  Na2SO4:10H2O
  Na4UO2(CO3)3    -24.51    -40.80  -16.29  Na4UO2(CO3)3
  Nahcolite        -4.60     -5.14   -0.55  NaHCO3
  Natron           -9.22    -10.53   -1.31  Na2CO3:10H2O
  Nesquehonite     -3.56     -9.18   -5.62  MgCO3:3H2O
  O2(g)           -44.99    -47.88   -2.89  O2
  Portlandite     -10.71     12.09   22.80  Ca(OH)2
  Rutherfordine    -5.29    -19.74  -14.45  UO2CO3
  Schoepite        -4.73      0.68    5.40  UO2(OH)2:H2O
  Siderite          0.34    -10.55  -10.89  FeCO3
  Siderite(d)(3)   -0.10    -10.55  -10.45  FeCO3
  Thenardite       -9.48     -9.66   -0.18  Na2SO4
  Thermonatrite   -10.66    -10.53    0.13  Na2CO3:H2O
  Trona           -14.88    -15.68   -0.80  NaHCO3:Na2CO3:2H2O
  U(OH)2SO4       -25.73    -28.93   -3.20  U(OH)2SO4
  U3O8(c)         -10.48     10.05   20.53  U3O8
  U4O9(c)         -15.05    -18.43   -3.38  U4O9
  UO2(a)           -9.48     -9.38    0.10  UO2
  UO3(gamma)       -7.04      0.68    7.72  UO3
  Uraninite(c)     -4.58     -9.38   -4.80  UO2

**For a gas, SI = log10(fugacity). Fugacity = pressure * phi / 1 atm.
  For ideal gases, phi = 1.

------------------
End of simulation.
------------------

------------------------------------
Reading input data for simulation 2.
------------------------------------

	PHASES
		Graphite          998
		C + 4H+ + 4e- = CH4
		log_k             6.03
	SOLUTION 1-5 
		pe	-4
		temp	25
		units       mg/l
		Na	60
		Cl	100
		Fe	.01
	EQUILIBRIUM_PHASES 1-5
		Pyrite	0	0
		CO2(g)	-3.5
		Uraninite(c)   0    0
		Calcite		0	0
		Graphite		0	.0000005
	SAVE SOLUTION 1-5
	END
-------------------------------------------
Beginning of initial solution calculations.
-------------------------------------------

Initial solution 1.	

-----------------------------Solution composition------------------------------

	Elements           Molality       Moles

	Cl                2.821e-03   2.821e-03
	Fe                1.791e-07   1.791e-07
	Na                2.610e-03   2.610e-03

----------------------------Description of solution----------------------------

                                       pH  =   7.000    
                                       pe  =  -4.000    
                        Activity of water  =   1.000
                 Ionic strength (mol/kgw)  =   2.716e-03
                       Mass of water (kg)  =   1.000e+00
                 Total alkalinity (eq/kg)  =   1.080e-09
                    Total carbon (mol/kg)  =   0.000e+00
                       Total CO2 (mol/kg)  =   0.000e+00
                         Temperature (°C)  =  25.00
                  Electrical balance (eq)  =  -2.105e-04
 Percent error, 100*(Cat-|An|)/(Cat+|An|)  =  -3.87
                               Iterations  =   4
                                  Total H  = 1.110124e+02
                                  Total O  = 5.550622e+01

----------------------------Distribution of species----------------------------

                                               Log       Log       Log    mole V
   Species          Molality    Activity  Molality  Activity     Gamma   cm³/mol

   OH-             1.060e-07   1.001e-07    -6.974    -7.000    -0.025     (0)  
   H+              1.054e-07   1.000e-07    -6.977    -7.000    -0.023      0.00
   H2O             5.551e+01   9.999e-01     1.744    -0.000     0.000     18.07
Cl            2.821e-03
   Cl-             2.821e-03   2.663e-03    -2.550    -2.575    -0.025     (0)  
   FeCl+           5.546e-10   5.242e-10    -9.256    -9.280    -0.024     (0)  
   FeCl+2          1.372e-25   1.095e-25   -24.863   -24.960    -0.098     (0)  
   FeCl2+          1.380e-27   1.303e-27   -26.860   -26.885    -0.025     (0)  
   FeCl3           3.467e-31   3.470e-31   -30.460   -30.460     0.000     (0)  
Fe(2)         1.791e-07
   Fe+2            1.781e-07   1.426e-07    -6.749    -6.846    -0.096     (0)  
   FeCl+           5.546e-10   5.242e-10    -9.256    -9.280    -0.024     (0)  
   FeOH+           4.771e-10   4.509e-10    -9.321    -9.346    -0.024     (0)  
   Fe(OH)2         3.835e-14   3.838e-14   -13.416   -13.416     0.000     (0)  
   Fe(OH)3-        1.508e-17   1.426e-17   -16.821   -16.846    -0.024     (0)  
Fe(3)         6.864e-16
   Fe(OH)3         3.748e-16   3.750e-16   -15.426   -15.426     0.000     (0)  
   Fe(OH)2+        3.079e-16   2.911e-16   -15.512   -15.536    -0.024     (0)  
   Fe(OH)4-        3.617e-18   3.420e-18   -17.442   -17.466    -0.024     (0)  
   FeOH+2          1.102e-19   8.792e-20   -18.958   -19.056    -0.098     (0)  
   Fe+3            2.195e-24   1.362e-24   -23.659   -23.866    -0.207     (0)  
   FeCl+2          1.372e-25   1.095e-25   -24.863   -24.960    -0.098     (0)  
   FeCl2+          1.380e-27   1.303e-27   -26.860   -26.885    -0.025     (0)  
   FeCl3           3.467e-31   3.470e-31   -30.460   -30.460     0.000     (0)  
   Fe2(OH)2+4      5.197e-37   2.081e-37   -36.284   -36.682    -0.398     (0)  
   Fe3(OH)4+5      0.000e+00   0.000e+00   -49.277   -49.898    -0.621     (0)  
H(0)          1.415e-09
   H2              7.075e-10   7.079e-10    -9.150    -9.150     0.000     (0)  
Na            2.610e-03
   Na+             2.610e-03   2.466e-03    -2.583    -2.608    -0.025     (0)  
O(0)          0.000e+00
   O2              0.000e+00   0.000e+00   -74.080   -74.080     0.000     (0)  

------------------------------Saturation indices-------------------------------

  Phase               SI** log IAP   log K(298 K,   1 atm)

  Fe(OH)2.7Cl.3    -2.70     -5.74   -3.04  Fe(OH)2.7Cl0.3
  Fe(OH)3(a)       -7.76     -2.87    4.89  Fe(OH)3
  Fe3(OH)8        -18.80      1.42   20.22  Fe3(OH)8
  Goethite         -1.87     -2.87   -1.00  FeOOH
  H2(g)            -6.00     -9.15   -3.15  H2
  H2O(g)           -1.51     -0.00    1.51  H2O
  Halite           -6.76     -5.18    1.58  NaCl
  Hematite         -1.72     -5.73   -4.01  Fe2O3
  Maghemite       -12.12     -5.73    6.39  Fe2O3
  Magnetite        -2.31      1.42    3.74  Fe3O4
  O2(g)           -71.19    -74.08   -2.89  O2

**For a gas, SI = log10(fugacity). Fugacity = pressure * phi / 1 atm.
  For ideal gases, phi = 1.

-----------------------------------------
Beginning of batch-reaction calculations.
-----------------------------------------

Reaction step 1.

WARNING: Element Ca is contained in Calcite (which has 0.0 mass),	
but is not in solution or other phases.
WARNING: Element S is contained in Pyrite (which has 0.0 mass),	
but is not in solution or other phases.
WARNING: Element U is contained in Uraninite(c) (which has 0.0 mass),	
but is not in solution or other phases.
WARNING: Element in phase, Calcite, is not in model.
WARNING: Element in phase, Uraninite(c), is not in model.
Using solution 1.	
Using pure phase assemblage 1.	

-------------------------------Phase assemblage--------------------------------

                                                      Moles in assemblage
Phase               SI  log IAP  log K(T, P)   Initial       Final       Delta

CO2(g)           -3.50    -4.97     -1.47    1.000e+01   1.000e+01  -1.303e-05
Calcite              Element not present.    0.000e+00           0   0.000e+00
Graphite          0.00     6.03      6.03    5.000e-07   4.135e-07  -8.648e-08
Pyrite               Element not present.    0.000e+00           0   0.000e+00
Uraninite(c)         Element not present.    0.000e+00           0   0.000e+00

-----------------------------Solution composition------------------------------

	Elements           Molality       Moles

	C                 1.311e-05   1.311e-05
	Cl                2.821e-03   2.821e-03
	Fe                1.791e-07   1.791e-07
	Na                2.610e-03   2.610e-03

----------------------------Description of solution----------------------------

                                       pH  =   5.659      Charge balance
                                       pe  =  -2.311      Adjusted to redox equilibrium
                        Activity of water  =   1.000
                 Ionic strength (mol/kgw)  =   2.718e-03
                       Mass of water (kg)  =   1.000e+00
                 Total alkalinity (eq/kg)  =   1.080e-09
                       Total CO2 (mol/kg)  =   1.307e-05
                         Temperature (°C)  =  25.00
                  Electrical balance (eq)  =  -2.105e-04
 Percent error, 100*(Cat-|An|)/(Cat+|An|)  =  -3.87
                               Iterations  =   9
                                  Total H  = 1.110124e+02
                                  Total O  = 5.550624e+01

----------------------------Distribution of species----------------------------

                                               Log       Log       Log    mole V
   Species          Molality    Activity  Molality  Activity     Gamma   cm³/mol

   H+              2.314e-06   2.195e-06    -5.636    -5.659    -0.023      0.00
   OH-             4.832e-09   4.561e-09    -8.316    -8.341    -0.025     (0)  
   H2O             5.551e+01   9.999e-01     1.744    -0.000     0.000     18.07
C(-4)         4.338e-08
   CH4             4.338e-08   4.341e-08    -7.363    -7.362     0.000     (0)  
C(4)          1.307e-05
   CO2             1.076e-05   1.077e-05    -4.968    -4.968     0.000     (0)  
   HCO3-           2.307e-06   2.182e-06    -5.637    -5.661    -0.024     (0)  
   NaHCO3          3.023e-09   3.025e-09    -8.519    -8.519     0.000     (0)  
   CO3-2           5.833e-11   4.662e-11   -10.234   -10.331    -0.097     (0)  
   FeHCO3+         3.302e-11   3.118e-11   -10.481   -10.506    -0.025     (0)  
   NaCO3-          2.264e-12   2.141e-12   -11.645   -11.669    -0.024     (0)  
   FeCO3           1.597e-13   1.598e-13   -12.797   -12.796     0.000     (0)  
Cl            2.821e-03
   Cl-             2.821e-03   2.663e-03    -2.550    -2.575    -0.025     (0)  
   FeCl+           5.559e-10   5.254e-10    -9.255    -9.279    -0.024     (0)  
   FeCl+2          6.729e-24   5.370e-24   -23.172   -23.270    -0.098     (0)  
   FeCl2+          6.764e-26   6.388e-26   -25.170   -25.195    -0.025     (0)  
   FeCl3           1.700e-29   1.701e-29   -28.770   -28.769     0.000     (0)  
Fe(2)         1.791e-07
   Fe+2            1.785e-07   1.429e-07    -6.748    -6.845    -0.096     (0)  
   FeCl+           5.559e-10   5.254e-10    -9.255    -9.279    -0.024     (0)  
   FeHCO3+         3.302e-11   3.118e-11   -10.481   -10.506    -0.025     (0)  
   FeOH+           2.179e-11   2.059e-11   -10.662   -10.686    -0.024     (0)  
   FeCO3           1.597e-13   1.598e-13   -12.797   -12.796     0.000     (0)  
   Fe(OH)2         7.980e-17   7.985e-17   -16.098   -16.098     0.000     (0)  
   Fe(OH)3-        1.430e-21   1.352e-21   -20.845   -20.869    -0.024     (0)  
Fe(3)         3.333e-17
   Fe(OH)2+        3.134e-17   2.963e-17   -16.504   -16.528    -0.024     (0)  
   Fe(OH)3         1.738e-18   1.739e-18   -17.760   -17.760     0.000     (0)  
   FeOH+2          2.461e-19   1.964e-19   -18.609   -18.707    -0.098     (0)  
   Fe(OH)4-        7.643e-22   7.227e-22   -21.117   -21.141    -0.024     (0)  
   Fe+3            1.076e-22   6.678e-23   -21.968   -22.175    -0.207     (0)  
   FeCl+2          6.729e-24   5.370e-24   -23.172   -23.270    -0.098     (0)  
   FeCl2+          6.764e-26   6.388e-26   -25.170   -25.195    -0.025     (0)  
   FeCl3           1.700e-29   1.701e-29   -28.770   -28.769     0.000     (0)  
   Fe2(OH)2+4      2.595e-36   1.038e-36   -35.586   -35.984    -0.398     (0)  
   Fe3(OH)4+5      0.000e+00   0.000e+00   -49.570   -50.192    -0.621     (0)  
H(0)          2.848e-10
   H2              1.424e-10   1.425e-10    -9.846    -9.846     0.000     (0)  
Na            2.610e-03
   Na+             2.610e-03   2.466e-03    -2.583    -2.608    -0.025     (0)  
   NaHCO3          3.023e-09   3.025e-09    -8.519    -8.519     0.000     (0)  
   NaCO3-          2.264e-12   2.141e-12   -11.645   -11.669    -0.024     (0)  
O(0)          0.000e+00
   O2              0.000e+00   0.000e+00   -72.688   -72.688     0.000     (0)  

------------------------------Saturation indices-------------------------------

  Phase               SI** log IAP   log K(298 K,   1 atm)

  CH4(g)           -4.50     -7.36   -2.86  CH4
  CO2(g)           -3.50     -4.97   -1.47  CO2
  Fe(OH)2.7Cl.3    -4.63     -7.67   -3.04  Fe(OH)2.7Cl0.3
  Fe(OH)3(a)      -10.09     -5.20    4.89  Fe(OH)3
  Fe3(OH)8        -26.15     -5.93   20.22  Fe3(OH)8
  Goethite         -4.20     -5.20   -1.00  FeOOH
  Graphite          0.00      6.03    6.03  C
  H2(g)            -6.70     -9.85   -3.15  H2
  H2O(g)           -1.51     -0.00    1.51  H2O
  Halite           -6.76     -5.18    1.58  NaCl
  Hematite         -6.39    -10.40   -4.01  Fe2O3
  Maghemite       -16.79    -10.40    6.39  Fe2O3
  Magnetite        -9.66     -5.93    3.74  Fe3O4
  Nahcolite        -7.72     -8.27   -0.55  NaHCO3
  Natron          -14.24    -15.55   -1.31  Na2CO3:10H2O
  O2(g)           -69.80    -72.69   -2.89  O2
  Siderite         -6.29    -17.18  -10.89  FeCO3
  Siderite(d)(3)   -6.73    -17.18  -10.45  FeCO3
  Thermonatrite   -15.67    -15.55    0.13  Na2CO3:H2O
  Trona           -23.02    -23.82   -0.80  NaHCO3:Na2CO3:2H2O

**For a gas, SI = log10(fugacity). Fugacity = pressure * phi / 1 atm.
  For ideal gases, phi = 1.

------------------
End of simulation.
------------------

------------------------------------
Reading input data for simulation 3.
------------------------------------

	SOLUTION 6-7 
		pe	-4
		temp	25
		units				mg/l
		Na	60
		Cl	100
		Fe	.01
	EQUILIBRIUM_PHASES 6-7
		Pyrite     0     0
		CO2(g)	-3.5
		Uraninite(c)	0	0
		Calcite		0	0
		Graphite		0	.0001
	SAVE SOLUTION 6-7
	ADVECTION
		cells		7
		shifts		21
	END
-------------------------------------------
Beginning of initial solution calculations.
-------------------------------------------

Initial solution 6.	

-----------------------------Solution composition------------------------------

	Elements           Molality       Moles

	Cl                2.821e-03   2.821e-03
	Fe                1.791e-07   1.791e-07
	Na                2.610e-03   2.610e-03

----------------------------Description of solution----------------------------

                                       pH  =   7.000    
                                       pe  =  -4.000    
                        Activity of water  =   1.000
                 Ionic strength (mol/kgw)  =   2.716e-03
                       Mass of water (kg)  =   1.000e+00
                 Total alkalinity (eq/kg)  =   1.080e-09
                    Total carbon (mol/kg)  =   0.000e+00
                       Total CO2 (mol/kg)  =   0.000e+00
                         Temperature (°C)  =  25.00
                  Electrical balance (eq)  =  -2.105e-04
 Percent error, 100*(Cat-|An|)/(Cat+|An|)  =  -3.87
                               Iterations  =   4
                                  Total H  = 1.110124e+02
                                  Total O  = 5.550622e+01

----------------------------Distribution of species----------------------------

                                               Log       Log       Log    mole V
   Species          Molality    Activity  Molality  Activity     Gamma   cm³/mol

   OH-             1.060e-07   1.001e-07    -6.974    -7.000    -0.025     (0)  
   H+              1.054e-07   1.000e-07    -6.977    -7.000    -0.023      0.00
   H2O             5.551e+01   9.999e-01     1.744    -0.000     0.000     18.07
Cl            2.821e-03
   Cl-             2.821e-03   2.663e-03    -2.550    -2.575    -0.025     (0)  
   FeCl+           5.546e-10   5.242e-10    -9.256    -9.280    -0.024     (0)  
   FeCl+2          1.372e-25   1.095e-25   -24.863   -24.960    -0.098     (0)  
   FeCl2+          1.380e-27   1.303e-27   -26.860   -26.885    -0.025     (0)  
   FeCl3           3.467e-31   3.470e-31   -30.460   -30.460     0.000     (0)  
Fe(2)         1.791e-07
   Fe+2            1.781e-07   1.426e-07    -6.749    -6.846    -0.096     (0)  
   FeCl+           5.546e-10   5.242e-10    -9.256    -9.280    -0.024     (0)  
   FeOH+           4.771e-10   4.509e-10    -9.321    -9.346    -0.024     (0)  
   Fe(OH)2         3.835e-14   3.838e-14   -13.416   -13.416     0.000     (0)  
   Fe(OH)3-        1.508e-17   1.426e-17   -16.821   -16.846    -0.024     (0)  
Fe(3)         6.864e-16
   Fe(OH)3         3.748e-16   3.750e-16   -15.426   -15.426     0.000     (0)  
   Fe(OH)2+        3.079e-16   2.911e-16   -15.512   -15.536    -0.024     (0)  
   Fe(OH)4-        3.617e-18   3.420e-18   -17.442   -17.466    -0.024     (0)  
   FeOH+2          1.102e-19   8.792e-20   -18.958   -19.056    -0.098     (0)  
   Fe+3            2.195e-24   1.362e-24   -23.659   -23.866    -0.207     (0)  
   FeCl+2          1.372e-25   1.095e-25   -24.863   -24.960    -0.098     (0)  
   FeCl2+          1.380e-27   1.303e-27   -26.860   -26.885    -0.025     (0)  
   FeCl3           3.467e-31   3.470e-31   -30.460   -30.460     0.000     (0)  
   Fe2(OH)2+4      5.197e-37   2.081e-37   -36.284   -36.682    -0.398     (0)  
   Fe3(OH)4+5      0.000e+00   0.000e+00   -49.277   -49.898    -0.621     (0)  
H(0)          1.415e-09
   H2              7.075e-10   7.079e-10    -9.150    -9.150     0.000     (0)  
Na            2.610e-03
   Na+             2.610e-03   2.466e-03    -2.583    -2.608    -0.025     (0)  
O(0)          0.000e+00
   O2              0.000e+00   0.000e+00   -74.080   -74.080     0.000     (0)  

------------------------------Saturation indices-------------------------------

  Phase               SI** log IAP   log K(298 K,   1 atm)

  Fe(OH)2.7Cl.3    -2.70     -5.74   -3.04  Fe(OH)2.7Cl0.3
  Fe(OH)3(a)       -7.76     -2.87    4.89  Fe(OH)3
  Fe3(OH)8        -18.80      1.42   20.22  Fe3(OH)8
  Goethite         -1.87     -2.87   -1.00  FeOOH
  H2(g)            -6.00     -9.15   -3.15  H2
  H2O(g)           -1.51     -0.00    1.51  H2O
  Halite           -6.76     -5.18    1.58  NaCl
  Hematite         -1.72     -5.73   -4.01  Fe2O3
  Maghemite       -12.12     -5.73    6.39  Fe2O3
  Magnetite        -2.31      1.42    3.74  Fe3O4
  O2(g)           -71.19    -74.08   -2.89  O2

**For a gas, SI = log10(fugacity). Fugacity = pressure * phi / 1 atm.
  For ideal gases, phi = 1.

-----------------------------------------
Beginning of batch-reaction calculations.
-----------------------------------------

Reaction step 1.

WARNING: Element Ca is contained in Calcite (which has 0.0 mass),	
but is not in solution or other phases.
WARNING: Element S is contained in Pyrite (which has 0.0 mass),	
but is not in solution or other phases.
WARNING: Element U is contained in Uraninite(c) (which has 0.0 mass),	
but is not in solution or other phases.
WARNING: Element in phase, Calcite, is not in model.
WARNING: Element in phase, Uraninite(c), is not in model.
Using solution 6.	
Using pure phase assemblage 6.	

-------------------------------Phase assemblage--------------------------------

                                                      Moles in assemblage
Phase               SI  log IAP  log K(T, P)   Initial       Final       Delta

CO2(g)           -3.50    -4.97     -1.47    1.000e+01   1.000e+01  -1.303e-05
Calcite              Element not present.    0.000e+00           0   0.000e+00
Graphite          0.00     6.03      6.03    1.000e-04   9.991e-05  -8.648e-08
Pyrite               Element not present.    0.000e+00           0   0.000e+00
Uraninite(c)         Element not present.    0.000e+00           0   0.000e+00

-----------------------------Solution composition------------------------------

	Elements           Molality       Moles

	C                 1.311e-05   1.311e-05
	Cl                2.821e-03   2.821e-03
	Fe                1.791e-07   1.791e-07
	Na                2.610e-03   2.610e-03

----------------------------Description of solution----------------------------

                                       pH  =   5.659      Charge balance
                                       pe  =  -2.311      Adjusted to redox equilibrium
                        Activity of water  =   1.000
                 Ionic strength (mol/kgw)  =   2.718e-03
                       Mass of water (kg)  =   1.000e+00
                 Total alkalinity (eq/kg)  =   1.080e-09
                       Total CO2 (mol/kg)  =   1.307e-05
                         Temperature (°C)  =  25.00
                  Electrical balance (eq)  =  -2.105e-04
 Percent error, 100*(Cat-|An|)/(Cat+|An|)  =  -3.87
                               Iterations  =   9
                                  Total H  = 1.110124e+02
                                  Total O  = 5.550624e+01

----------------------------Distribution of species----------------------------

                                               Log       Log       Log    mole V
   Species          Molality    Activity  Molality  Activity     Gamma   cm³/mol

   H+              2.314e-06   2.195e-06    -5.636    -5.659    -0.023      0.00
   OH-             4.832e-09   4.561e-09    -8.316    -8.341    -0.025     (0)  
   H2O             5.551e+01   9.999e-01     1.744    -0.000     0.000     18.07
C(-4)         4.338e-08
   CH4             4.338e-08   4.341e-08    -7.363    -7.362     0.000     (0)  
C(4)          1.307e-05
   CO2             1.076e-05   1.077e-05    -4.968    -4.968     0.000     (0)  
   HCO3-           2.307e-06   2.182e-06    -5.637    -5.661    -0.024     (0)  
   NaHCO3          3.023e-09   3.025e-09    -8.519    -8.519     0.000     (0)  
   CO3-2           5.833e-11   4.662e-11   -10.234   -10.331    -0.097     (0)  
   FeHCO3+         3.302e-11   3.118e-11   -10.481   -10.506    -0.025     (0)  
   NaCO3-          2.264e-12   2.141e-12   -11.645   -11.669    -0.024     (0)  
   FeCO3           1.597e-13   1.598e-13   -12.797   -12.796     0.000     (0)  
Cl            2.821e-03
   Cl-             2.821e-03   2.663e-03    -2.550    -2.575    -0.025     (0)  
   FeCl+           5.559e-10   5.254e-10    -9.255    -9.279    -0.024     (0)  
   FeCl+2          6.729e-24   5.370e-24   -23.172   -23.270    -0.098     (0)  
   FeCl2+          6.764e-26   6.388e-26   -25.170   -25.195    -0.025     (0)  
   FeCl3           1.700e-29   1.701e-29   -28.770   -28.769     0.000     (0)  
Fe(2)         1.791e-07
   Fe+2            1.785e-07   1.429e-07    -6.748    -6.845    -0.096     (0)  
   FeCl+           5.559e-10   5.254e-10    -9.255    -9.279    -0.024     (0)  
   FeHCO3+         3.302e-11   3.118e-11   -10.481   -10.506    -0.025     (0)  
   FeOH+           2.179e-11   2.059e-11   -10.662   -10.686    -0.024     (0)  
   FeCO3           1.597e-13   1.598e-13   -12.797   -12.796     0.000     (0)  
   Fe(OH)2         7.980e-17   7.985e-17   -16.098   -16.098     0.000     (0)  
   Fe(OH)3-        1.430e-21   1.352e-21   -20.845   -20.869    -0.024     (0)  
Fe(3)         3.333e-17
   Fe(OH)2+        3.134e-17   2.963e-17   -16.504   -16.528    -0.024     (0)  
   Fe(OH)3         1.738e-18   1.739e-18   -17.760   -17.760     0.000     (0)  
   FeOH+2          2.461e-19   1.964e-19   -18.609   -18.707    -0.098     (0)  
   Fe(OH)4-        7.643e-22   7.227e-22   -21.117   -21.141    -0.024     (0)  
   Fe+3            1.076e-22   6.678e-23   -21.968   -22.175    -0.207     (0)  
   FeCl+2          6.729e-24   5.370e-24   -23.172   -23.270    -0.098     (0)  
   FeCl2+          6.764e-26   6.388e-26   -25.170   -25.195    -0.025     (0)  
   FeCl3           1.700e-29   1.701e-29   -28.770   -28.769     0.000     (0)  
   Fe2(OH)2+4      2.595e-36   1.038e-36   -35.586   -35.984    -0.398     (0)  
   Fe3(OH)4+5      0.000e+00   0.000e+00   -49.570   -50.192    -0.621     (0)  
H(0)          2.848e-10
   H2              1.424e-10   1.425e-10    -9.846    -9.846     0.000     (0)  
Na            2.610e-03
   Na+             2.610e-03   2.466e-03    -2.583    -2.608    -0.025     (0)  
   NaHCO3          3.023e-09   3.025e-09    -8.519    -8.519     0.000     (0)  
   NaCO3-          2.264e-12   2.141e-12   -11.645   -11.669    -0.024     (0)  
O(0)          0.000e+00
   O2              0.000e+00   0.000e+00   -72.688   -72.688     0.000     (0)  

------------------------------Saturation indices-------------------------------

  Phase               SI** log IAP   log K(298 K,   1 atm)

  CH4(g)           -4.50     -7.36   -2.86  CH4
  CO2(g)           -3.50     -4.97   -1.47  CO2
  Fe(OH)2.7Cl.3    -4.63     -7.67   -3.04  Fe(OH)2.7Cl0.3
  Fe(OH)3(a)      -10.09     -5.20    4.89  Fe(OH)3
  Fe3(OH)8        -26.15     -5.93   20.22  Fe3(OH)8
  Goethite         -4.20     -5.20   -1.00  FeOOH
  Graphite          0.00      6.03    6.03  C
  H2(g)            -6.70     -9.85   -3.15  H2
  H2O(g)           -1.51     -0.00    1.51  H2O
  Halite           -6.76     -5.18    1.58  NaCl
  Hematite         -6.39    -10.40   -4.01  Fe2O3
  Maghemite       -16.79    -10.40    6.39  Fe2O3
  Magnetite        -9.66     -5.93    3.74  Fe3O4
  Nahcolite        -7.72     -8.27   -0.55  NaHCO3
  Natron          -14.24    -15.55   -1.31  Na2CO3:10H2O
  O2(g)           -69.80    -72.69   -2.89  O2
  Siderite         -6.29    -17.18  -10.89  FeCO3
  Siderite(d)(3)   -6.73    -17.18  -10.45  FeCO3
  Thermonatrite   -15.67    -15.55    0.13  Na2CO3:H2O
  Trona           -23.02    -23.82   -0.80  NaHCO3:Na2CO3:2H2O

**For a gas, SI = log10(fugacity). Fugacity = pressure * phi / 1 atm.
  For ideal gases, phi = 1.

------------------------------------
Beginning of advection calculations.
------------------------------------

Beginning of advection time step 1, cumulative pore volumes 0.142857.

Cell 1.

Using solution 1.	Well no. 2 of Lee (1985), Coastal Plain, transport and mix withtemp17.5
Using pure phase assemblage 1.	

-------------------------------Phase assemblage--------------------------------

                                                      Moles in assemblage
Phase               SI  log IAP  log K(T, P)   Initial       Final       Delta

CO2(g)           -3.50    -4.97     -1.47    1.000e+01   1.000e+01   1.220e-03
Calcite           0.00    -8.48     -8.48    0.000e+00   1.037e-03   1.037e-03
Graphite         -2.39     3.64      6.03    5.000e-07           0  -5.000e-07
Pyrite            0.00   -18.48    -18.48    0.000e+00   7.764e-08   7.764e-08
Uraninite(c)      0.00    -4.80     -4.80    0.000e+00   2.102e-08   2.102e-08

-----------------------------Solution composition------------------------------

	Elements           Molality       Moles

	C                 1.187e-03   1.187e-03
	Ca                4.108e-04   4.108e-04
	Cl                2.822e-03   2.822e-03
	Fe                1.175e-05   1.175e-05
	K                 3.838e-05   3.838e-05
	Mg                2.016e-04   2.016e-04
	Na                2.698e-03   2.698e-03
	S                 6.025e-05   6.025e-05
	U                 5.113e-14   5.113e-14

----------------------------Description of solution----------------------------

                                       pH  =   8.347      Charge balance
                                       pe  =  -4.401      Adjusted to redox equilibrium
                        Activity of water  =   1.000
                 Ionic strength (mol/kgw)  =   4.703e-03
                       Mass of water (kg)  =   1.000e+00
                 Total alkalinity (eq/kg)  =   1.203e-03
                       Total CO2 (mol/kg)  =   1.187e-03
                         Temperature (°C)  =  25.00
                  Electrical balance (eq)  =  -1.608e-04
 Percent error, 100*(Cat-|An|)/(Cat+|An|)  =  -2.00
                               Iterations  =  18
                                  Total H  = 1.110157e+02
                                  Total O  = 5.551106e+01

----------------------------Distribution of species----------------------------

                                               Log       Log       Log    mole V
   Species          Molality    Activity  Molality  Activity     Gamma   cm³/mol

   OH-             2.397e-06   2.224e-06    -5.620    -5.653    -0.032     (0)  
   H+              4.812e-09   4.500e-09    -8.318    -8.347    -0.029      0.00
   H2O             5.551e+01   9.999e-01     1.744    -0.000     0.000     18.07
C(-4)         7.125e-13
   CH4             7.125e-13   7.133e-13   -12.147   -12.147     0.000     (0)  
C(4)          1.187e-03
   HCO3-           1.143e-03   1.064e-03    -2.942    -2.973    -0.031     (0)  
   CO3-2           1.478e-05   1.109e-05    -4.830    -4.955    -0.125     (0)  
   CO2             1.075e-05   1.077e-05    -4.968    -4.968     0.000     (0)  
   CaCO3           5.544e-06   5.550e-06    -5.256    -5.256     0.000     (0)  
   CaHCO3+         4.352e-06   4.054e-06    -5.361    -5.392    -0.031     (0)  
   MgHCO3+         1.982e-06   1.841e-06    -5.703    -5.735    -0.032     (0)  
   FeCO3           1.738e-06   1.740e-06    -5.760    -5.759     0.000     (0)  
   MgCO3           1.563e-06   1.564e-06    -5.806    -5.806     0.000     (0)  
   NaHCO3          1.497e-06   1.499e-06    -5.825    -5.824     0.000     (0)  
   FeHCO3+         7.493e-07   6.961e-07    -6.125    -6.157    -0.032     (0)  
   NaCO3-          5.558e-07   5.173e-07    -6.255    -6.286    -0.031     (0)  
   UO2(CO3)3-4     4.320e-16   1.328e-16   -15.364   -15.877    -0.512     (0)  
   UO2(CO3)2-2     3.771e-16   2.808e-16   -15.424   -15.552    -0.128     (0)  
   UO2CO3          1.079e-18   1.080e-18   -17.967   -17.966     0.000     (0)  
   UO2(CO3)3-5     4.114e-24   6.515e-25   -23.386   -24.186    -0.800     (0)  
   U(CO3)4-4       2.539e-25   7.805e-26   -24.595   -25.108    -0.512     (0)  
   U(CO3)5-6       1.548e-28   1.090e-29   -27.810   -28.963    -1.152     (0)  
   (UO2)3(CO3)6-6   0.000e+00   0.000e+00   -42.502   -43.655    -1.152     (0)  
Ca            4.108e-04
   Ca+2            3.984e-04   2.988e-04    -3.400    -3.525    -0.125     (0)  
   CaCO3           5.544e-06   5.550e-06    -5.256    -5.256     0.000     (0)  
   CaHCO3+         4.352e-06   4.054e-06    -5.361    -5.392    -0.031     (0)  
   CaSO4           2.482e-06   2.485e-06    -5.605    -5.605     0.000     (0)  
   CaOH+           1.183e-08   1.102e-08    -7.927    -7.958    -0.031     (0)  
   CaHSO4+         7.051e-14   6.550e-14   -13.152   -13.184    -0.032     (0)  
Cl            2.822e-03
   Cl-             2.822e-03   2.619e-03    -2.549    -2.582    -0.032     (0)  
   FeCl+           2.543e-08   2.365e-08    -7.595    -7.626    -0.031     (0)  
   FeCl+2          2.624e-24   1.965e-24   -23.581   -23.707    -0.126     (0)  
   UO2Cl+          9.526e-26   8.849e-26   -25.021   -25.053    -0.032     (0)  
   FeCl2+          2.474e-26   2.298e-26   -25.607   -25.639    -0.032     (0)  
   UO2Cl2          1.243e-29   1.245e-29   -28.905   -28.905     0.000     (0)  
   FeCl3           6.014e-30   6.020e-30   -29.221   -29.220     0.000     (0)  
   UCl+3           1.735e-39   8.936e-40   -38.761   -39.049    -0.288     (0)  
Fe(2)         1.175e-05
   Fe+2            8.689e-06   6.542e-06    -5.061    -5.184    -0.123     (0)  
   FeCO3           1.738e-06   1.740e-06    -5.760    -5.759     0.000     (0)  
   FeHCO3+         7.493e-07   6.961e-07    -6.125    -6.157    -0.032     (0)  
   FeOH+           4.942e-07   4.597e-07    -6.306    -6.338    -0.031     (0)  
   FeSO4           4.844e-08   4.849e-08    -7.315    -7.314     0.000     (0)  
   FeCl+           2.543e-08   2.365e-08    -7.595    -7.626    -0.031     (0)  
   Fe(OH)2         8.684e-10   8.693e-10    -9.061    -9.061     0.000     (0)  
   Fe(OH)3-        7.715e-12   7.176e-12   -11.113   -11.144    -0.031     (0)  
   FeHSO4+         1.544e-15   1.434e-15   -14.811   -14.843    -0.032     (0)  
   Fe(HS)2         3.786e-18   3.791e-18   -17.422   -17.421     0.000     (0)  
   Fe(HS)3-        1.133e-26   1.052e-26   -25.946   -25.978    -0.032     (0)  
Fe(3)         9.411e-11
   Fe(OH)3         7.495e-11   7.504e-11   -10.125   -10.125     0.000     (0)  
   Fe(OH)4-        1.634e-11   1.521e-11   -10.787   -10.818    -0.031     (0)  
   Fe(OH)2+        2.817e-12   2.621e-12   -11.550   -11.581    -0.031     (0)  
   FeOH+2          4.759e-17   3.563e-17   -16.322   -16.448    -0.126     (0)  
   Fe+3            4.537e-23   2.484e-23   -22.343   -22.605    -0.262     (0)  
   FeSO4+          1.220e-23   1.135e-23   -22.914   -22.945    -0.031     (0)  
   FeCl+2          2.624e-24   1.965e-24   -23.581   -23.707    -0.126     (0)  
   FeCl2+          2.474e-26   2.298e-26   -25.607   -25.639    -0.032     (0)  
   Fe(SO4)2-       1.114e-26   1.035e-26   -25.953   -25.985    -0.032     (0)  
   FeCl3           6.014e-30   6.020e-30   -29.221   -29.220     0.000     (0)  
   FeHSO4+2        1.837e-31   1.368e-31   -30.736   -30.864    -0.128     (0)  
   Fe2(OH)2+4      1.111e-31   3.417e-32   -30.954   -31.466    -0.512     (0)  
   Fe3(OH)4+5      1.182e-40   0.000e+00   -39.928   -40.728    -0.800     (0)  
H(0)          1.812e-11
   H2              9.062e-12   9.072e-12   -11.043   -11.042     0.000     (0)  
K             3.838e-05
   K+              3.837e-05   3.561e-05    -4.416    -4.448    -0.032     (0)  
   KSO4-           1.121e-08   1.043e-08    -7.951    -7.982    -0.031     (0)  
Mg            2.016e-04
   Mg+2            1.965e-04   1.479e-04    -3.707    -3.830    -0.124     (0)  
   MgHCO3+         1.982e-06   1.841e-06    -5.703    -5.735    -0.032     (0)  
   MgCO3           1.563e-06   1.564e-06    -5.806    -5.806     0.000     (0)  
   MgSO4           1.443e-06   1.445e-06    -5.841    -5.840     0.000     (0)  
   MgOH+           1.280e-07   1.193e-07    -6.893    -6.923    -0.031     (0)  
Na            2.698e-03
   Na+             2.695e-03   2.505e-03    -2.569    -2.601    -0.032     (0)  
   NaHCO3          1.497e-06   1.499e-06    -5.825    -5.824     0.000     (0)  
   NaSO4-          5.623e-07   5.234e-07    -6.250    -6.281    -0.031     (0)  
   NaCO3-          5.558e-07   5.173e-07    -6.255    -6.286    -0.031     (0)  
O(0)          0.000e+00
   O2              0.000e+00   0.000e+00   -70.296   -70.296     0.000     (0)  
S(-2)         4.784e-11
   HS-             2.747e-11   2.550e-11   -10.561   -10.594    -0.032     (0)  
   S5-2            1.855e-12   1.440e-12   -11.732   -11.842    -0.110     (0)  
   S4-2            1.093e-12   8.400e-13   -11.962   -12.076    -0.114     (0)  
   H2S             1.002e-12   1.003e-12   -11.999   -11.999     0.000     (0)  
   S6-2            9.520e-13   7.452e-13   -12.021   -12.128    -0.106     (0)  
   S-2             9.142e-16   6.844e-16   -15.039   -15.165    -0.126     (0)  
   S3-2            3.889e-16   2.960e-16   -15.410   -15.529    -0.119     (0)  
   S2-2            2.225e-17   1.680e-17   -16.653   -16.775    -0.122     (0)  
   Fe(HS)2         3.786e-18   3.791e-18   -17.422   -17.421     0.000     (0)  
   Fe(HS)3-        1.133e-26   1.052e-26   -25.946   -25.978    -0.032     (0)  
S(6)          6.025e-05
   SO4-2           5.570e-05   4.168e-05    -4.254    -4.380    -0.126     (0)  
   CaSO4           2.482e-06   2.485e-06    -5.605    -5.605     0.000     (0)  
   MgSO4           1.443e-06   1.445e-06    -5.841    -5.840     0.000     (0)  
   NaSO4-          5.623e-07   5.234e-07    -6.250    -6.281    -0.031     (0)  
   FeSO4           4.844e-08   4.849e-08    -7.315    -7.314     0.000     (0)  
   KSO4-           1.121e-08   1.043e-08    -7.951    -7.982    -0.031     (0)  
   HSO4-           1.962e-11   1.824e-11   -10.707   -10.739    -0.032     (0)  
   CaHSO4+         7.051e-14   6.550e-14   -13.152   -13.184    -0.032     (0)  
   FeHSO4+         1.544e-15   1.434e-15   -14.811   -14.843    -0.032     (0)  
   FeSO4+          1.220e-23   1.135e-23   -22.914   -22.945    -0.031     (0)  
   UO2SO4          1.343e-24   1.345e-24   -23.872   -23.871     0.000     (0)  
   Fe(SO4)2-       1.114e-26   1.035e-26   -25.953   -25.985    -0.032     (0)  
   UO2(SO4)2-2     7.356e-28   5.478e-28   -27.133   -27.261    -0.128     (0)  
   FeHSO4+2        1.837e-31   1.368e-31   -30.736   -30.864    -0.128     (0)  
   USO4+2          1.383e-36   1.030e-36   -35.859   -35.987    -0.128     (0)  
   U(SO4)2         3.567e-37   3.571e-37   -36.448   -36.447     0.000     (0)  
U(3)          0.000e+00
   U+3             0.000e+00   0.000e+00   -42.294   -42.582    -0.288     (0)  
U(4)          5.028e-14
   U(OH)4          5.028e-14   5.034e-14   -13.299   -13.298     0.000     (0)  
   U(OH)3+         8.916e-19   8.282e-19   -18.050   -18.082    -0.032     (0)  
   U(OH)2+2        2.315e-24   1.724e-24   -23.636   -23.764    -0.128     (0)  
   U(CO3)4-4       2.539e-25   7.805e-26   -24.595   -25.108    -0.512     (0)  
   U(CO3)5-6       1.548e-28   1.090e-29   -27.810   -28.963    -1.152     (0)  
   UOH+3           8.087e-31   4.166e-31   -30.092   -30.380    -0.288     (0)  
   USO4+2          1.383e-36   1.030e-36   -35.859   -35.987    -0.128     (0)  
   U(SO4)2         3.567e-37   3.571e-37   -36.448   -36.447     0.000     (0)  
   U+4             2.114e-38   6.501e-39   -37.675   -38.187    -0.512     (0)  
   UCl+3           1.735e-39   8.936e-40   -38.761   -39.049    -0.288     (0)  
   U6(OH)15+9      0.000e+00   0.000e+00  -118.528  -121.121    -2.593     (0)  
U(5)          1.912e-17
   UO2+            1.912e-17   1.776e-17   -16.719   -16.751    -0.032     (0)  
   UO2(CO3)3-5     4.114e-24   6.515e-25   -23.386   -24.186    -0.800     (0)  
U(6)          8.273e-16
   UO2(CO3)3-4     4.320e-16   1.328e-16   -15.364   -15.877    -0.512     (0)  
   UO2(CO3)2-2     3.771e-16   2.808e-16   -15.424   -15.552    -0.128     (0)  
   UO2(OH)3-       1.702e-17   1.581e-17   -16.769   -16.801    -0.032     (0)  
   UO2CO3          1.079e-18   1.080e-18   -17.967   -17.966     0.000     (0)  
   UO2OH+          3.447e-20   3.202e-20   -19.463   -19.495    -0.032     (0)  
   UO2(OH)4-2      7.477e-23   5.567e-23   -22.126   -22.254    -0.128     (0)  
   UO2+2           3.067e-23   2.284e-23   -22.513   -22.641    -0.128     (0)  
   UO2SO4          1.343e-24   1.345e-24   -23.872   -23.871     0.000     (0)  
   UO2Cl+          9.526e-26   8.849e-26   -25.021   -25.053    -0.032     (0)  
   UO2(SO4)2-2     7.356e-28   5.478e-28   -27.133   -27.261    -0.128     (0)  
   UO2Cl2          1.243e-29   1.245e-29   -28.905   -28.905     0.000     (0)  
   (UO2)2(OH)2+2   8.298e-35   6.179e-35   -34.081   -34.209    -0.128     (0)  
   (UO2)2OH+3      4.491e-40   2.313e-40   -39.348   -39.636    -0.288     (0)  
   (UO2)3(OH)7-    0.000e+00   0.000e+00   -40.465   -40.497    -0.032     (0)  
   (UO2)3(OH)5+    0.000e+00   0.000e+00   -41.708   -41.740    -0.032     (0)  
   (UO2)3(CO3)6-6   0.000e+00   0.000e+00   -42.502   -43.655    -1.152     (0)  
   (UO2)3(OH)4+2   0.000e+00   0.000e+00   -46.309   -46.437    -0.128     (0)  
   (UO2)4(OH)7+    0.000e+00   0.000e+00   -54.006   -54.038    -0.032     (0)  

------------------------------Saturation indices-------------------------------

  Phase               SI** log IAP   log K(298 K,   1 atm)

  Anhydrite        -3.54     -7.90   -4.36  CaSO4
  Aragonite        -0.14     -8.48   -8.34  CaCO3
  Artinite         -5.52      4.08    9.60  MgCO3:Mg(OH)2:3H2O
  B-UO2(OH)2      -11.49     -5.95    5.54  UO2(OH)2
  Brucite          -3.98     12.86   16.84  Mg(OH)2
  Calcite           0.00     -8.48   -8.48  CaCO3
  CH4(g)           -9.29    -12.15   -2.86  CH4
  CO2(g)           -3.50     -4.97   -1.47  CO2
  Dolomite         -0.18    -17.27  -17.09  CaMg(CO3)2
  Dolomite(d)      -0.73    -17.27  -16.54  CaMg(CO3)2
  Epsomite         -6.07     -8.21   -2.14  MgSO4:7H2O
  Fe(OH)2.7Cl.3     2.20     -0.84   -3.04  Fe(OH)2.7Cl0.3
  Fe(OH)3(a)       -2.46      2.44    4.89  Fe(OH)3
  Fe3(OH)8         -3.84     16.38   20.22  Fe3(OH)8
  FeS(ppt)         -3.52     -7.43   -3.92  FeS
  Goethite          3.44      2.44   -1.00  FeOOH
  Graphite         -2.39      3.64    6.03  C
  Greigite        -14.35    -59.38  -45.03  Fe3S4
  Gummite         -16.35     -5.95   10.40  UO3
  Gypsum           -3.32     -7.90   -4.58  CaSO4:2H2O
  H2(g)            -7.89    -11.04   -3.15  H2
  H2O(g)           -1.51     -0.00    1.51  H2O
  H2S(g)          -11.00    -12.00   -1.00  H2S
  Halite           -6.76     -5.18    1.58  NaCl
  Hematite          8.88      4.87   -4.01  Fe2O3
  Huntite          -4.87    -34.84  -29.97  CaMg3(CO3)4
  Hydromagnesite  -13.52    -22.28   -8.76  Mg5(CO3)4(OH)2:4H2O
  Jarosite(ss)    -21.84    -31.67   -9.83  (K0.77Na0.03H0.2)Fe3(SO4)2(OH)6
  Jarosite-K      -21.73    -30.94   -9.21  KFe3(SO4)2(OH)6
  Jarosite-Na     -23.82    -29.10   -5.28  NaFe3(SO4)2(OH)6
  JarositeH       -29.45    -34.84   -5.39  (H3O)Fe3(SO4)2(OH)6
  Mackinawite      -2.78     -7.43   -4.65  FeS
  Maghemite        -1.52      4.87    6.39  Fe2O3
  Magnesite        -0.76     -8.79   -8.03  MgCO3
  Magnetite        12.64     16.38    3.74  Fe3O4
  Melanterite      -7.36     -9.56   -2.21  FeSO4:7H2O
  Mirabilite       -8.47     -9.58   -1.11  Na2SO4:10H2O
  Na4UO2(CO3)3    -31.62    -47.91  -16.29  Na4UO2(CO3)3
  Nahcolite        -5.03     -5.57   -0.55  NaHCO3
  Natron           -8.85    -10.16   -1.31  Na2CO3:10H2O
  Nesquehonite     -3.16     -8.79   -5.62  MgCO3:3H2O
  O2(g)           -67.40    -70.30   -2.89  O2
  Portlandite      -9.63     13.17   22.80  Ca(OH)2
  Pyrite            0.00    -18.48  -18.48  FeS2
  Rutherfordine   -13.15    -27.60  -14.45  UO2CO3
  Schoepite       -11.35     -5.95    5.40  UO2(OH)2:H2O
  Siderite          0.75    -10.14  -10.89  FeCO3
  Siderite(d)(3)    0.31    -10.14  -10.45  FeCO3
  Sulfur           -8.94    -23.97  -15.03  S
  Thenardite       -9.40     -9.58   -0.18  Na2SO4
  Thermonatrite   -10.28    -10.16    0.13  Na2CO3:H2O
  Trona           -14.94    -15.73   -0.80  NaHCO3:Na2CO3:2H2O
  U(OH)2SO4       -22.67    -25.87   -3.20  U(OH)2SO4
  U3O8(c)         -19.15      1.38   20.53  U3O8
  U4O9(c)          -7.92    -11.31   -3.38  U4O9
  UO2(a)           -4.90     -4.80    0.10  UO2
  UO3(gamma)      -13.67     -5.95    7.72  UO3
  Uraninite(c)      0.00     -4.80   -4.80  UO2

**For a gas, SI = log10(fugacity). Fugacity = pressure * phi / 1 atm.
  For ideal gases, phi = 1.


Cell 2.

Using solution 2.	Solution after simulation 2.
Using pure phase assemblage 2.	

-------------------------------Phase assemblage--------------------------------

                                                      Moles in assemblage
Phase               SI  log IAP  log K(T, P)   Initial       Final       Delta

CO2(g)           -3.50    -4.97     -1.47    1.000e+01   1.000e+01   3.553e-15
Calcite              Element not present.    0.000e+00           0   0.000e+00
Graphite         -0.00     6.03      6.03    5.000e-07   5.000e-07  -3.963e-15
Pyrite               Element not present.    0.000e+00           0   0.000e+00
Uraninite(c)         Element not present.    0.000e+00           0   0.000e+00

-----------------------------Solution composition------------------------------

	Elements           Molality       Moles

	C                 1.311e-05   1.311e-05
	Cl                2.821e-03   2.821e-03
	Fe                1.791e-07   1.791e-07
	Na                2.610e-03   2.610e-03

----------------------------Description of solution----------------------------

                                       pH  =   5.659      Charge balance
                                       pe  =  -2.311      Adjusted to redox equilibrium
                        Activity of water  =   1.000
                 Ionic strength (mol/kgw)  =   2.718e-03
                       Mass of water (kg)  =   1.000e+00
                 Total alkalinity (eq/kg)  =   1.080e-09
                       Total CO2 (mol/kg)  =   1.307e-05
                         Temperature (°C)  =  25.00
                  Electrical balance (eq)  =  -2.105e-04
 Percent error, 100*(Cat-|An|)/(Cat+|An|)  =  -3.87
                               Iterations  =   1
                                  Total H  = 1.110124e+02
                                  Total O  = 5.550624e+01

----------------------------Distribution of species----------------------------

                                               Log       Log       Log    mole V
   Species          Molality    Activity  Molality  Activity     Gamma   cm³/mol

   H+              2.314e-06   2.195e-06    -5.636    -5.659    -0.023      0.00
   OH-             4.832e-09   4.561e-09    -8.316    -8.341    -0.025     (0)  
   H2O             5.551e+01   9.999e-01     1.744    -0.000     0.000     18.07
C(-4)         4.338e-08
   CH4             4.338e-08   4.341e-08    -7.363    -7.362     0.000     (0)  
C(4)          1.307e-05
   CO2             1.076e-05   1.077e-05    -4.968    -4.968     0.000     (0)  
   HCO3-           2.307e-06   2.182e-06    -5.637    -5.661    -0.024     (0)  
   NaHCO3          3.023e-09   3.025e-09    -8.519    -8.519     0.000     (0)  
   CO3-2           5.833e-11   4.662e-11   -10.234   -10.331    -0.097     (0)  
   FeHCO3+         3.302e-11   3.118e-11   -10.481   -10.506    -0.025     (0)  
   NaCO3-          2.264e-12   2.141e-12   -11.645   -11.669    -0.024     (0)  
   FeCO3           1.597e-13   1.598e-13   -12.797   -12.796     0.000     (0)  
Cl            2.821e-03
   Cl-             2.821e-03   2.663e-03    -2.550    -2.575    -0.025     (0)  
   FeCl+           5.559e-10   5.254e-10    -9.255    -9.279    -0.024     (0)  
   FeCl+2          6.729e-24   5.370e-24   -23.172   -23.270    -0.098     (0)  
   FeCl2+          6.764e-26   6.388e-26   -25.170   -25.195    -0.025     (0)  
   FeCl3           1.700e-29   1.701e-29   -28.770   -28.769     0.000     (0)  
Fe(2)         1.791e-07
   Fe+2            1.785e-07   1.429e-07    -6.748    -6.845    -0.096     (0)  
   FeCl+           5.559e-10   5.254e-10    -9.255    -9.279    -0.024     (0)  
   FeHCO3+         3.302e-11   3.118e-11   -10.481   -10.506    -0.025     (0)  
   FeOH+           2.179e-11   2.059e-11   -10.662   -10.686    -0.024     (0)  
   FeCO3           1.597e-13   1.598e-13   -12.797   -12.796     0.000     (0)  
   Fe(OH)2         7.980e-17   7.985e-17   -16.098   -16.098     0.000     (0)  
   Fe(OH)3-        1.430e-21   1.352e-21   -20.845   -20.869    -0.024     (0)  
Fe(3)         3.333e-17
   Fe(OH)2+        3.134e-17   2.963e-17   -16.504   -16.528    -0.024     (0)  
   Fe(OH)3         1.738e-18   1.739e-18   -17.760   -17.760     0.000     (0)  
   FeOH+2          2.461e-19   1.964e-19   -18.609   -18.707    -0.098     (0)  
   Fe(OH)4-        7.643e-22   7.227e-22   -21.117   -21.141    -0.024     (0)  
   Fe+3            1.076e-22   6.678e-23   -21.968   -22.175    -0.207     (0)  
   FeCl+2          6.729e-24   5.370e-24   -23.172   -23.270    -0.098     (0)  
   FeCl2+          6.764e-26   6.388e-26   -25.170   -25.195    -0.025     (0)  
   FeCl3           1.700e-29   1.701e-29   -28.770   -28.769     0.000     (0)  
   Fe2(OH)2+4      2.595e-36   1.038e-36   -35.586   -35.984    -0.398     (0)  
   Fe3(OH)4+5      0.000e+00   0.000e+00   -49.570   -50.192    -0.621     (0)  
H(0)          2.848e-10
   H2              1.424e-10   1.425e-10    -9.846    -9.846     0.000     (0)  
Na            2.610e-03
   Na+             2.610e-03   2.466e-03    -2.583    -2.608    -0.025     (0)  
   NaHCO3          3.023e-09   3.025e-09    -8.519    -8.519     0.000     (0)  
   NaCO3-          2.264e-12   2.141e-12   -11.645   -11.669    -0.024     (0)  
O(0)          0.000e+00
   O2              0.000e+00   0.000e+00   -72.688   -72.688     0.000     (0)  

------------------------------Saturation indices-------------------------------

  Phase               SI** log IAP   log K(298 K,   1 atm)

  CH4(g)           -4.50     -7.36   -2.86  CH4
  CO2(g)           -3.50     -4.97   -1.47  CO2
  Fe(OH)2.7Cl.3    -4.63     -7.67   -3.04  Fe(OH)2.7Cl0.3
  Fe(OH)3(a)      -10.09     -5.20    4.89  Fe(OH)3
  Fe3(OH)8        -26.15     -5.93   20.22  Fe3(OH)8
  Goethite         -4.20     -5.20   -1.00  FeOOH
  Graphite         -0.00      6.03    6.03  C
  H2(g)            -6.70     -9.85   -3.15  H2
  H2O(g)           -1.51     -0.00    1.51  H2O
  Halite           -6.76     -5.18    1.58  NaCl
  Hematite         -6.39    -10.40   -4.01  Fe2O3
  Maghemite       -16.79    -10.40    6.39  Fe2O3
  Magnetite        -9.66     -5.93    3.74  Fe3O4
  Nahcolite        -7.72     -8.27   -0.55  NaHCO3
  Natron          -14.24    -15.55   -1.31  Na2CO3:10H2O
  O2(g)           -69.80    -72.69   -2.89  O2
  Siderite         -6.29    -17.18  -10.89  FeCO3
  Siderite(d)(3)   -6.73    -17.18  -10.45  FeCO3
  Thermonatrite   -15.67    -15.55    0.13  Na2CO3:H2O
  Trona           -23.02    -23.82   -0.80  NaHCO3:Na2CO3:2H2O

**For a gas, SI = log10(fugacity). Fugacity = pressure * phi / 1 atm.
  For ideal gases, phi = 1.


Cell 3.

Using solution 3.	Solution after simulation 2.
Using pure phase assemblage 3.	

-------------------------------Phase assemblage--------------------------------

                                                      Moles in assemblage
Phase               SI  log IAP  log K(T, P)   Initial       Final       Delta

CO2(g)           -3.50    -4.97     -1.47    1.000e+01   1.000e+01   3.553e-15
Calcite              Element not present.    0.000e+00           0   0.000e+00
Graphite         -0.00     6.03      6.03    5.000e-07   5.000e-07  -3.963e-15
Pyrite               Element not present.    0.000e+00           0   0.000e+00
Uraninite(c)         Element not present.    0.000e+00           0   0.000e+00

-----------------------------Solution composition------------------------------

	Elements           Molality       Moles

	C                 1.311e-05   1.311e-05
	Cl                2.821e-03   2.821e-03
	Fe                1.791e-07   1.791e-07
	Na                2.610e-03   2.610e-03

----------------------------Description of solution----------------------------

                                       pH  =   5.659      Charge balance
                                       pe  =  -2.311      Adjusted to redox equilibrium
                        Activity of water  =   1.000
                 Ionic strength (mol/kgw)  =   2.718e-03
                       Mass of water (kg)  =   1.000e+00
                 Total alkalinity (eq/kg)  =   1.080e-09
                       Total CO2 (mol/kg)  =   1.307e-05
                         Temperature (°C)  =  25.00
                  Electrical balance (eq)  =  -2.105e-04
 Percent error, 100*(Cat-|An|)/(Cat+|An|)  =  -3.87
                               Iterations  =   1
                                  Total H  = 1.110124e+02
                                  Total O  = 5.550624e+01

----------------------------Distribution of species----------------------------

                                               Log       Log       Log    mole V
   Species          Molality    Activity  Molality  Activity     Gamma   cm³/mol

   H+              2.314e-06   2.195e-06    -5.636    -5.659    -0.023      0.00
   OH-             4.832e-09   4.561e-09    -8.316    -8.341    -0.025     (0)  
   H2O             5.551e+01   9.999e-01     1.744    -0.000     0.000     18.07
C(-4)         4.338e-08
   CH4             4.338e-08   4.341e-08    -7.363    -7.362     0.000     (0)  
C(4)          1.307e-05
   CO2             1.076e-05   1.077e-05    -4.968    -4.968     0.000     (0)  
   HCO3-           2.307e-06   2.182e-06    -5.637    -5.661    -0.024     (0)  
   NaHCO3          3.023e-09   3.025e-09    -8.519    -8.519     0.000     (0)  
   CO3-2           5.833e-11   4.662e-11   -10.234   -10.331    -0.097     (0)  
   FeHCO3+         3.302e-11   3.118e-11   -10.481   -10.506    -0.025     (0)  
   NaCO3-          2.264e-12   2.141e-12   -11.645   -11.669    -0.024     (0)  
   FeCO3           1.597e-13   1.598e-13   -12.797   -12.796     0.000     (0)  
Cl            2.821e-03
   Cl-             2.821e-03   2.663e-03    -2.550    -2.575    -0.025     (0)  
   FeCl+           5.559e-10   5.254e-10    -9.255    -9.279    -0.024     (0)  
   FeCl+2          6.729e-24   5.370e-24   -23.172   -23.270    -0.098     (0)  
   FeCl2+          6.764e-26   6.388e-26   -25.170   -25.195    -0.025     (0)  
   FeCl3           1.700e-29   1.701e-29   -28.770   -28.769     0.000     (0)  
Fe(2)         1.791e-07
   Fe+2            1.785e-07   1.429e-07    -6.748    -6.845    -0.096     (0)  
   FeCl+           5.559e-10   5.254e-10    -9.255    -9.279    -0.024     (0)  
   FeHCO3+         3.302e-11   3.118e-11   -10.481   -10.506    -0.025     (0)  
   FeOH+           2.179e-11   2.059e-11   -10.662   -10.686    -0.024     (0)  
   FeCO3           1.597e-13   1.598e-13   -12.797   -12.796     0.000     (0)  
   Fe(OH)2         7.980e-17   7.985e-17   -16.098   -16.098     0.000     (0)  
   Fe(OH)3-        1.430e-21   1.352e-21   -20.845   -20.869    -0.024     (0)  
Fe(3)         3.333e-17
   Fe(OH)2+        3.134e-17   2.963e-17   -16.504   -16.528    -0.024     (0)  
   Fe(OH)3         1.738e-18   1.739e-18   -17.760   -17.760     0.000     (0)  
   FeOH+2          2.461e-19   1.964e-19   -18.609   -18.707    -0.098     (0)  
   Fe(OH)4-        7.643e-22   7.227e-22   -21.117   -21.141    -0.024     (0)  
   Fe+3            1.076e-22   6.678e-23   -21.968   -22.175    -0.207     (0)  
   FeCl+2          6.729e-24   5.370e-24   -23.172   -23.270    -0.098     (0)  
   FeCl2+          6.764e-26   6.388e-26   -25.170   -25.195    -0.025     (0)  
   FeCl3           1.700e-29   1.701e-29   -28.770   -28.769     0.000     (0)  
   Fe2(OH)2+4      2.595e-36   1.038e-36   -35.586   -35.984    -0.398     (0)  
   Fe3(OH)4+5      0.000e+00   0.000e+00   -49.570   -50.192    -0.621     (0)  
H(0)          2.848e-10
   H2              1.424e-10   1.425e-10    -9.846    -9.846     0.000     (0)  
Na            2.610e-03
   Na+             2.610e-03   2.466e-03    -2.583    -2.608    -0.025     (0)  
   NaHCO3          3.023e-09   3.025e-09    -8.519    -8.519     0.000     (0)  
   NaCO3-          2.264e-12   2.141e-12   -11.645   -11.669    -0.024     (0)  
O(0)          0.000e+00
   O2              0.000e+00   0.000e+00   -72.688   -72.688     0.000     (0)  

------------------------------Saturation indices-------------------------------

  Phase               SI** log IAP   log K(298 K,   1 atm)

  CH4(g)           -4.50     -7.36   -2.86  CH4
  CO2(g)           -3.50     -4.97   -1.47  CO2
  Fe(OH)2.7Cl.3    -4.63     -7.67   -3.04  Fe(OH)2.7Cl0.3
  Fe(OH)3(a)      -10.09     -5.20    4.89  Fe(OH)3
  Fe3(OH)8        -26.15     -5.93   20.22  Fe3(OH)8
  Goethite         -4.20     -5.20   -1.00  FeOOH
  Graphite         -0.00      6.03    6.03  C
  H2(g)            -6.70     -9.85   -3.15  H2
  H2O(g)           -1.51     -0.00    1.51  H2O
  Halite           -6.76     -5.18    1.58  NaCl
  Hematite         -6.39    -10.40   -4.01  Fe2O3
  Maghemite       -16.79    -10.40    6.39  Fe2O3
  Magnetite        -9.66     -5.93    3.74  Fe3O4
  Nahcolite        -7.72     -8.27   -0.55  NaHCO3
  Natron          -14.24    -15.55   -1.31  Na2CO3:10H2O
  O2(g)           -69.80    -72.69   -2.89  O2
  Siderite         -6.29    -17.18  -10.89  FeCO3
  Siderite(d)(3)   -6.73    -17.18  -10.45  FeCO3
  Thermonatrite   -15.67    -15.55    0.13  Na2CO3:H2O
  Trona           -23.02    -23.82   -0.80  NaHCO3:Na2CO3:2H2O

**For a gas, SI = log10(fugacity). Fugacity = pressure * phi / 1 atm.
  For ideal gases, phi = 1.


Cell 4.

Using solution 4.	Solution after simulation 2.
Using pure phase assemblage 4.	

-------------------------------Phase assemblage--------------------------------

                                                      Moles in assemblage
Phase               SI  log IAP  log K(T, P)   Initial       Final       Delta

CO2(g)           -3.50    -4.97     -1.47    1.000e+01   1.000e+01   3.553e-15
Calcite              Element not present.    0.000e+00           0   0.000e+00
Graphite         -0.00     6.03      6.03    5.000e-07   5.000e-07  -3.963e-15
Pyrite               Element not present.    0.000e+00           0   0.000e+00
Uraninite(c)         Element not present.    0.000e+00           0   0.000e+00

-----------------------------Solution composition------------------------------

	Elements           Molality       Moles

	C                 1.311e-05   1.311e-05
	Cl                2.821e-03   2.821e-03
	Fe                1.791e-07   1.791e-07
	Na                2.610e-03   2.610e-03

----------------------------Description of solution----------------------------

                                       pH  =   5.659      Charge balance
                                       pe  =  -2.311      Adjusted to redox equilibrium
                        Activity of water  =   1.000
                 Ionic strength (mol/kgw)  =   2.718e-03
                       Mass of water (kg)  =   1.000e+00
                 Total alkalinity (eq/kg)  =   1.080e-09
                       Total CO2 (mol/kg)  =   1.307e-05
                         Temperature (°C)  =  25.00
                  Electrical balance (eq)  =  -2.105e-04
 Percent error, 100*(Cat-|An|)/(Cat+|An|)  =  -3.87
                               Iterations  =   1
                                  Total H  = 1.110124e+02
                                  Total O  = 5.550624e+01

----------------------------Distribution of species----------------------------

                                               Log       Log       Log    mole V
   Species          Molality    Activity  Molality  Activity     Gamma   cm³/mol

   H+              2.314e-06   2.195e-06    -5.636    -5.659    -0.023      0.00
   OH-             4.832e-09   4.561e-09    -8.316    -8.341    -0.025     (0)  
   H2O             5.551e+01   9.999e-01     1.744    -0.000     0.000     18.07
C(-4)         4.338e-08
   CH4             4.338e-08   4.341e-08    -7.363    -7.362     0.000     (0)  
C(4)          1.307e-05
   CO2             1.076e-05   1.077e-05    -4.968    -4.968     0.000     (0)  
   HCO3-           2.307e-06   2.182e-06    -5.637    -5.661    -0.024     (0)  
   NaHCO3          3.023e-09   3.025e-09    -8.519    -8.519     0.000     (0)  
   CO3-2           5.833e-11   4.662e-11   -10.234   -10.331    -0.097     (0)  
   FeHCO3+         3.302e-11   3.118e-11   -10.481   -10.506    -0.025     (0)  
   NaCO3-          2.264e-12   2.141e-12   -11.645   -11.669    -0.024     (0)  
   FeCO3           1.597e-13   1.598e-13   -12.797   -12.796     0.000     (0)  
Cl            2.821e-03
   Cl-             2.821e-03   2.663e-03    -2.550    -2.575    -0.025     (0)  
   FeCl+           5.559e-10   5.254e-10    -9.255    -9.279    -0.024     (0)  
   FeCl+2          6.729e-24   5.370e-24   -23.172   -23.270    -0.098     (0)  
   FeCl2+          6.764e-26   6.388e-26   -25.170   -25.195    -0.025     (0)  
   FeCl3           1.700e-29   1.701e-29   -28.770   -28.769     0.000     (0)  
Fe(2)         1.791e-07
   Fe+2            1.785e-07   1.429e-07    -6.748    -6.845    -0.096     (0)  
   FeCl+           5.559e-10   5.254e-10    -9.255    -9.279    -0.024     (0)  
   FeHCO3+         3.302e-11   3.118e-11   -10.481   -10.506    -0.025     (0)  
   FeOH+           2.179e-11   2.059e-11   -10.662   -10.686    -0.024     (0)  
   FeCO3           1.597e-13   1.598e-13   -12.797   -12.796     0.000     (0)  
   Fe(OH)2         7.980e-17   7.985e-17   -16.098   -16.098     0.000     (0)  
   Fe(OH)3-        1.430e-21   1.352e-21   -20.845   -20.869    -0.024     (0)  
Fe(3)         3.333e-17
   Fe(OH)2+        3.134e-17   2.963e-17   -16.504   -16.528    -0.024     (0)  
   Fe(OH)3         1.738e-18   1.739e-18   -17.760   -17.760     0.000     (0)  
   FeOH+2          2.461e-19   1.964e-19   -18.609   -18.707    -0.098     (0)  
   Fe(OH)4-        7.643e-22   7.227e-22   -21.117   -21.141    -0.024     (0)  
   Fe+3            1.076e-22   6.678e-23   -21.968   -22.175    -0.207     (0)  
   FeCl+2          6.729e-24   5.370e-24   -23.172   -23.270    -0.098     (0)  
   FeCl2+          6.764e-26   6.388e-26   -25.170   -25.195    -0.025     (0)  
   FeCl3           1.700e-29   1.701e-29   -28.770   -28.769     0.000     (0)  
   Fe2(OH)2+4      2.595e-36   1.038e-36   -35.586   -35.984    -0.398     (0)  
   Fe3(OH)4+5      0.000e+00   0.000e+00   -49.570   -50.192    -0.621     (0)  
H(0)          2.848e-10
   H2              1.424e-10   1.425e-10    -9.846    -9.846     0.000     (0)  
Na            2.610e-03
   Na+             2.610e-03   2.466e-03    -2.583    -2.608    -0.025     (0)  
   NaHCO3          3.023e-09   3.025e-09    -8.519    -8.519     0.000     (0)  
   NaCO3-          2.264e-12   2.141e-12   -11.645   -11.669    -0.024     (0)  
O(0)          0.000e+00
   O2              0.000e+00   0.000e+00   -72.688   -72.688     0.000     (0)  

------------------------------Saturation indices-------------------------------

  Phase               SI** log IAP   log K(298 K,   1 atm)

  CH4(g)           -4.50     -7.36   -2.86  CH4
  CO2(g)           -3.50     -4.97   -1.47  CO2
  Fe(OH)2.7Cl.3    -4.63     -7.67   -3.04  Fe(OH)2.7Cl0.3
  Fe(OH)3(a)      -10.09     -5.20    4.89  Fe(OH)3
  Fe3(OH)8        -26.15     -5.93   20.22  Fe3(OH)8
  Goethite         -4.20     -5.20   -1.00  FeOOH
  Graphite         -0.00      6.03    6.03  C
  H2(g)            -6.70     -9.85   -3.15  H2
  H2O(g)           -1.51     -0.00    1.51  H2O
  Halite           -6.76     -5.18    1.58  NaCl
  Hematite         -6.39    -10.40   -4.01  Fe2O3
  Maghemite       -16.79    -10.40    6.39  Fe2O3
  Magnetite        -9.66     -5.93    3.74  Fe3O4
  Nahcolite        -7.72     -8.27   -0.55  NaHCO3
  Natron          -14.24    -15.55   -1.31  Na2CO3:10H2O
  O2(g)           -69.80    -72.69   -2.89  O2
  Siderite         -6.29    -17.18  -10.89  FeCO3
  Siderite(d)(3)   -6.73    -17.18  -10.45  FeCO3
  Thermonatrite   -15.67    -15.55    0.13  Na2CO3:H2O
  Trona           -23.02    -23.82   -0.80  NaHCO3:Na2CO3:2H2O

**For a gas, SI = log10(fugacity). Fugacity = pressure * phi / 1 atm.
  For ideal gases, phi = 1.


Cell 5.

Using solution 5.	Solution after simulation 2.
Using pure phase assemblage 5.	

-------------------------------Phase assemblage--------------------------------

                                                      Moles in assemblage
Phase               SI  log IAP  log K(T, P)   Initial       Final       Delta

CO2(g)           -3.50    -4.97     -1.47    1.000e+01   1.000e+01   3.553e-15
Calcite              Element not present.    0.000e+00           0   0.000e+00
Graphite         -0.00     6.03      6.03    5.000e-07   5.000e-07  -3.963e-15
Pyrite               Element not present.    0.000e+00           0   0.000e+00
Uraninite(c)         Element not present.    0.000e+00           0   0.000e+00

-----------------------------Solution composition------------------------------

	Elements           Molality       Moles

	C                 1.311e-05   1.311e-05
	Cl                2.821e-03   2.821e-03
	Fe                1.791e-07   1.791e-07
	Na                2.610e-03   2.610e-03

----------------------------Description of solution----------------------------

                                       pH  =   5.659      Charge balance
                                       pe  =  -2.311      Adjusted to redox equilibrium
                        Activity of water  =   1.000
                 Ionic strength (mol/kgw)  =   2.718e-03
                       Mass of water (kg)  =   1.000e+00
                 Total alkalinity (eq/kg)  =   1.080e-09
                       Total CO2 (mol/kg)  =   1.307e-05
                         Temperature (°C)  =  25.00
                  Electrical balance (eq)  =  -2.105e-04
 Percent error, 100*(Cat-|An|)/(Cat+|An|)  =  -3.87
                               Iterations  =   1
                                  Total H  = 1.110124e+02
                                  Total O  = 5.550624e+01

----------------------------Distribution of species----------------------------

                                               Log       Log       Log    mole V
   Species          Molality    Activity  Molality  Activity     Gamma   cm³/mol

   H+              2.314e-06   2.195e-06    -5.636    -5.659    -0.023      0.00
   OH-             4.832e-09   4.561e-09    -8.316    -8.341    -0.025     (0)  
   H2O             5.551e+01   9.999e-01     1.744    -0.000     0.000     18.07
C(-4)         4.338e-08
   CH4             4.338e-08   4.341e-08    -7.363    -7.362     0.000     (0)  
C(4)          1.307e-05
   CO2             1.076e-05   1.077e-05    -4.968    -4.968     0.000     (0)  
   HCO3-           2.307e-06   2.182e-06    -5.637    -5.661    -0.024     (0)  
   NaHCO3          3.023e-09   3.025e-09    -8.519    -8.519     0.000     (0)  
   CO3-2           5.833e-11   4.662e-11   -10.234   -10.331    -0.097     (0)  
   FeHCO3+         3.302e-11   3.118e-11   -10.481   -10.506    -0.025     (0)  
   NaCO3-          2.264e-12   2.141e-12   -11.645   -11.669    -0.024     (0)  
   FeCO3           1.597e-13   1.598e-13   -12.797   -12.796     0.000     (0)  
Cl            2.821e-03
   Cl-             2.821e-03   2.663e-03    -2.550    -2.575    -0.025     (0)  
[...]
  Artinite         -5.52      4.08    9.60  MgCO3:Mg(OH)2:3H2O
  B-UO2(OH)2      -11.49     -5.95    5.54  UO2(OH)2
  Brucite          -3.98     12.86   16.84  Mg(OH)2
  Calcite           0.00     -8.48   -8.48  CaCO3
  CH4(g)           -9.29    -12.15   -2.86  CH4
  CO2(g)           -3.50     -4.97   -1.47  CO2
  Dolomite         -0.18    -17.27  -17.09  CaMg(CO3)2
  Dolomite(d)      -0.73    -17.27  -16.54  CaMg(CO3)2
  Epsomite         -6.07     -8.21   -2.14  MgSO4:7H2O
  Fe(OH)2.7Cl.3     2.20     -0.84   -3.04  Fe(OH)2.7Cl0.3
  Fe(OH)3(a)       -2.45      2.44    4.89  Fe(OH)3
  Fe3(OH)8         -3.83     16.40   20.22  Fe3(OH)8
  FeS(ppt)         -3.51     -7.43   -3.92  FeS
  Goethite          3.44      2.44   -1.00  FeOOH
  Graphite         -2.39      3.64    6.03  C
  Greigite        -14.34    -59.38  -45.03  Fe3S4
  Gummite         -16.35     -5.95   10.40  UO3
  Gypsum           -3.32     -7.90   -4.58  CaSO4:2H2O
  H2(g)            -7.89    -11.04   -3.15  H2
  H2O(g)           -1.51     -0.00    1.51  H2O
  H2S(g)          -11.00    -12.00   -1.00  H2S
  Halite           -6.76     -5.18    1.58  NaCl
  Hematite          8.89      4.88   -4.01  Fe2O3
  Huntite          -4.87    -34.84  -29.97  CaMg3(CO3)4
  Hydromagnesite  -13.52    -22.28   -8.76  Mg5(CO3)4(OH)2:4H2O
  Jarosite(ss)    -21.82    -31.65   -9.83  (K0.77Na0.03H0.2)Fe3(SO4)2(OH)6
  Jarosite-K      -21.71    -30.92   -9.21  KFe3(SO4)2(OH)6
  Jarosite-Na     -23.79    -29.07   -5.28  NaFe3(SO4)2(OH)6
  JarositeH       -29.43    -34.82   -5.39  (H3O)Fe3(SO4)2(OH)6
  Mackinawite      -2.78     -7.43   -4.65  FeS
  Maghemite        -1.50      4.88    6.39  Fe2O3
  Magnesite        -0.76     -8.79   -8.03  MgCO3
  Magnetite        12.66     16.40    3.74  Fe3O4
  Melanterite      -7.35     -9.56   -2.21  FeSO4:7H2O
  Mirabilite       -8.47     -9.58   -1.11  Na2SO4:10H2O
  Na4UO2(CO3)3    -31.62    -47.91  -16.29  Na4UO2(CO3)3
  Nahcolite        -5.03     -5.57   -0.55  NaHCO3
  Natron           -8.85    -10.16   -1.31  Na2CO3:10H2O
  Nesquehonite     -3.16     -8.79   -5.62  MgCO3:3H2O
  O2(g)           -67.40    -70.29   -2.89  O2
  Portlandite      -9.63     13.17   22.80  Ca(OH)2
  Pyrite            0.00    -18.48  -18.48  FeS2
  Rutherfordine   -13.15    -27.60  -14.45  UO2CO3
  Schoepite       -11.35     -5.95    5.40  UO2(OH)2:H2O
  Siderite          0.76    -10.13  -10.89  FeCO3
  Siderite(d)(3)    0.32    -10.13  -10.45  FeCO3
  Sulfur           -8.94    -23.97  -15.03  S
  Thenardite       -9.40     -9.58   -0.18  Na2SO4
  Thermonatrite   -10.28    -10.16    0.13  Na2CO3:H2O
  Trona           -14.94    -15.73   -0.80  NaHCO3:Na2CO3:2H2O
  U(OH)2SO4       -22.67    -25.87   -3.20  U(OH)2SO4
  U3O8(c)         -19.14      1.39   20.53  U3O8
  U4O9(c)          -7.92    -11.31   -3.38  U4O9
  UO2(a)           -4.90     -4.80    0.10  UO2
  UO3(gamma)      -13.67     -5.95    7.72  UO3
  Uraninite(c)      0.00     -4.80   -4.80  UO2

**For a gas, SI = log10(fugacity). Fugacity = pressure * phi / 1 atm.
  For ideal gases, phi = 1.


Cell 7.

Using solution 7.	Solution after simulation 3.
Using pure phase assemblage 7.	Pure-phase assemblage after simulation 3.

-------------------------------Phase assemblage--------------------------------

                                                      Moles in assemblage
Phase               SI  log IAP  log K(T, P)   Initial       Final       Delta

CO2(g)           -3.50    -4.97     -1.47    1.000e+01   1.000e+01  -1.776e-15
Calcite           0.00    -8.48     -8.48    2.160e-05   2.160e-05   6.825e-16
Graphite         -2.39     3.64      6.03    0.000e+00           0   0.000e+00
Pyrite            0.00   -18.48    -18.48    2.675e-05   2.675e-05   8.967e-16
Uraninite(c)      0.00    -4.80     -4.80    0.000e+00           0   0.000e+00

-----------------------------Solution composition------------------------------

	Elements           Molality       Moles

	C                 1.187e-03   1.187e-03
	Ca                4.109e-04   4.109e-04
	Cl                2.822e-03   2.822e-03
	Fe                1.189e-05   1.189e-05
	K                 3.838e-05   3.838e-05
	Mg                2.016e-04   2.016e-04
	Na                2.698e-03   2.698e-03
	S                 6.053e-05   6.054e-05
	U                 5.113e-14   5.113e-14

----------------------------Description of solution----------------------------

                                       pH  =   8.347      Charge balance
                                       pe  =  -4.400      Adjusted to redox equilibrium
                        Activity of water  =   1.000
                 Ionic strength (mol/kgw)  =   4.704e-03
                       Mass of water (kg)  =   1.000e+00
                 Total alkalinity (eq/kg)  =   1.203e-03
                       Total CO2 (mol/kg)  =   1.187e-03
                         Temperature (°C)  =  25.00
                  Electrical balance (eq)  =  -1.608e-04
 Percent error, 100*(Cat-|An|)/(Cat+|An|)  =  -2.00
                               Iterations  =   1
                                  Total H  = 1.110157e+02
                                  Total O  = 5.551106e+01

----------------------------Distribution of species----------------------------

                                               Log       Log       Log    mole V
   Species          Molality    Activity  Molality  Activity     Gamma   cm³/mol

   OH-             2.396e-06   2.224e-06    -5.620    -5.653    -0.032     (0)  
   H+              4.812e-09   4.501e-09    -8.318    -8.347    -0.029      0.00
   H2O             5.551e+01   9.999e-01     1.744    -0.000     0.000     18.07
C(-4)         7.037e-13
   CH4             7.037e-13   7.045e-13   -12.153   -12.152     0.000     (0)  
C(4)          1.187e-03
   HCO3-           1.143e-03   1.064e-03    -2.942    -2.973    -0.031     (0)  
   CO3-2           1.477e-05   1.109e-05    -4.830    -4.955    -0.125     (0)  
   CO2             1.075e-05   1.077e-05    -4.968    -4.968     0.000     (0)  
   CaCO3           5.544e-06   5.550e-06    -5.256    -5.256     0.000     (0)  
   CaHCO3+         4.353e-06   4.055e-06    -5.361    -5.392    -0.031     (0)  
   MgHCO3+         1.982e-06   1.840e-06    -5.703    -5.735    -0.032     (0)  
   FeCO3           1.759e-06   1.761e-06    -5.755    -5.754     0.000     (0)  
   MgCO3           1.562e-06   1.564e-06    -5.806    -5.806     0.000     (0)  
   NaHCO3          1.497e-06   1.499e-06    -5.825    -5.824     0.000     (0)  
   FeHCO3+         7.583e-07   7.044e-07    -6.120    -6.152    -0.032     (0)  
   NaCO3-          5.557e-07   5.172e-07    -6.255    -6.286    -0.031     (0)  
   UO2(CO3)3-4     4.332e-16   1.332e-16   -15.363   -15.876    -0.512     (0)  
   UO2(CO3)2-2     3.782e-16   2.816e-16   -15.422   -15.550    -0.128     (0)  
   UO2CO3          1.083e-18   1.084e-18   -17.966   -17.965     0.000     (0)  
   UO2(CO3)3-5     4.119e-24   6.522e-25   -23.385   -24.186    -0.800     (0)  
   U(CO3)4-4       2.538e-25   7.802e-26   -24.596   -25.108    -0.512     (0)  
   U(CO3)5-6       1.547e-28   1.089e-29   -27.810   -28.963    -1.153     (0)  
   (UO2)3(CO3)6-6   0.000e+00   0.000e+00   -42.498   -43.651    -1.153     (0)  
Ca            4.109e-04
   Ca+2            3.985e-04   2.988e-04    -3.400    -3.525    -0.125     (0)  
   CaCO3           5.544e-06   5.550e-06    -5.256    -5.256     0.000     (0)  
   CaHCO3+         4.353e-06   4.055e-06    -5.361    -5.392    -0.031     (0)  
   CaSO4           2.494e-06   2.497e-06    -5.603    -5.603     0.000     (0)  
   CaOH+           1.183e-08   1.102e-08    -7.927    -7.958    -0.031     (0)  
   CaHSO4+         7.086e-14   6.583e-14   -13.150   -13.182    -0.032     (0)  
Cl            2.822e-03
   Cl-             2.822e-03   2.619e-03    -2.549    -2.582    -0.032     (0)  
   FeCl+           2.574e-08   2.394e-08    -7.589    -7.621    -0.031     (0)  
   FeCl+2          2.661e-24   1.992e-24   -23.575   -23.701    -0.126     (0)  
   UO2Cl+          9.558e-26   8.879e-26   -25.020   -25.052    -0.032     (0)  
   FeCl2+          2.509e-26   2.330e-26   -25.601   -25.633    -0.032     (0)  
   UO2Cl2          1.248e-29   1.249e-29   -28.904   -28.903     0.000     (0)  
   FeCl3           6.097e-30   6.103e-30   -29.215   -29.214     0.000     (0)  
   UCl+3           1.736e-39   8.940e-40   -38.761   -39.049    -0.288     (0)  
Fe(2)         1.189e-05
   Fe+2            8.795e-06   6.622e-06    -5.056    -5.179    -0.123     (0)  
   FeCO3           1.759e-06   1.761e-06    -5.755    -5.754     0.000     (0)  
   FeHCO3+         7.583e-07   7.044e-07    -6.120    -6.152    -0.032     (0)  
   FeOH+           5.001e-07   4.652e-07    -6.301    -6.332    -0.031     (0)  
   FeSO4           4.926e-08   4.931e-08    -7.308    -7.307     0.000     (0)  
   FeCl+           2.574e-08   2.394e-08    -7.589    -7.621    -0.031     (0)  
   Fe(OH)2         8.787e-10   8.797e-10    -9.056    -9.056     0.000     (0)  
   Fe(OH)3-        7.806e-12   7.261e-12   -11.108   -11.139    -0.031     (0)  
   FeHSO4+         1.570e-15   1.459e-15   -14.804   -14.836    -0.032     (0)  
   Fe(HS)2         3.775e-18   3.779e-18   -17.423   -17.423     0.000     (0)  
   Fe(HS)3-        1.121e-26   1.041e-26   -25.950   -25.982    -0.032     (0)  
Fe(3)         9.538e-11
   Fe(OH)3         7.597e-11   7.605e-11   -10.119   -10.119     0.000     (0)  
   Fe(OH)4-        1.656e-11   1.541e-11   -10.781   -10.812    -0.031     (0)  
   Fe(OH)2+        2.855e-12   2.657e-12   -11.544   -11.576    -0.031     (0)  
   FeOH+2          4.825e-17   3.612e-17   -16.317   -16.442    -0.126     (0)  
   Fe+3            4.600e-23   2.518e-23   -22.337   -22.599    -0.262     (0)  
   FeSO4+          1.243e-23   1.156e-23   -22.906   -22.937    -0.031     (0)  
   FeCl+2          2.661e-24   1.992e-24   -23.575   -23.701    -0.126     (0)  
   FeCl2+          2.509e-26   2.330e-26   -25.601   -25.633    -0.032     (0)  
   Fe(SO4)2-       1.140e-26   1.059e-26   -25.943   -25.975    -0.032     (0)  
   FeCl3           6.097e-30   6.103e-30   -29.215   -29.214     0.000     (0)  
   FeHSO4+2        1.871e-31   1.393e-31   -30.728   -30.856    -0.128     (0)  
   Fe2(OH)2+4      1.142e-31   3.511e-32   -30.942   -31.455    -0.512     (0)  
   Fe3(OH)4+5      1.231e-40   0.000e+00   -39.910   -40.710    -0.800     (0)  
H(0)          1.807e-11
   H2              9.034e-12   9.044e-12   -11.044   -11.044     0.000     (0)  
K             3.838e-05
   K+              3.837e-05   3.561e-05    -4.416    -4.448    -0.032     (0)  
   KSO4-           1.126e-08   1.048e-08    -7.949    -7.980    -0.031     (0)  
Mg            2.016e-04
   Mg+2            1.965e-04   1.479e-04    -3.707    -3.830    -0.124     (0)  
   MgHCO3+         1.982e-06   1.840e-06    -5.703    -5.735    -0.032     (0)  
   MgCO3           1.562e-06   1.564e-06    -5.806    -5.806     0.000     (0)  
   MgSO4           1.450e-06   1.451e-06    -5.839    -5.838     0.000     (0)  
   MgOH+           1.279e-07   1.193e-07    -6.893    -6.923    -0.031     (0)  
Na            2.698e-03
   Na+             2.695e-03   2.505e-03    -2.569    -2.601    -0.032     (0)  
   NaHCO3          1.497e-06   1.499e-06    -5.825    -5.824     0.000     (0)  
   NaSO4-          5.650e-07   5.258e-07    -6.248    -6.279    -0.031     (0)  
   NaCO3-          5.557e-07   5.172e-07    -6.255    -6.286    -0.031     (0)  
O(0)          0.000e+00
   O2              0.000e+00   0.000e+00   -70.293   -70.293     0.000     (0)  
S(-2)         4.747e-11
   HS-             2.727e-11   2.530e-11   -10.564   -10.597    -0.032     (0)  
   S5-2            1.841e-12   1.429e-12   -11.735   -11.845    -0.110     (0)  
   S4-2            1.084e-12   8.336e-13   -11.965   -12.079    -0.114     (0)  
   H2S             9.946e-13   9.957e-13   -12.002   -12.002     0.000     (0)  
   S6-2            9.447e-13   7.395e-13   -12.025   -12.131    -0.106     (0)  
   S-2             9.072e-16   6.791e-16   -15.042   -15.168    -0.126     (0)  
   S3-2            3.859e-16   2.937e-16   -15.414   -15.532    -0.119     (0)  
   S2-2            2.208e-17   1.667e-17   -16.656   -16.778    -0.122     (0)  
   Fe(HS)2         3.775e-18   3.779e-18   -17.423   -17.423     0.000     (0)  
   Fe(HS)3-        1.121e-26   1.041e-26   -25.950   -25.982    -0.032     (0)  
S(6)          6.053e-05
   SO4-2           5.596e-05   4.188e-05    -4.252    -4.378    -0.126     (0)  
   CaSO4           2.494e-06   2.497e-06    -5.603    -5.603     0.000     (0)  
   MgSO4           1.450e-06   1.451e-06    -5.839    -5.838     0.000     (0)  
   NaSO4-          5.650e-07   5.258e-07    -6.248    -6.279    -0.031     (0)  
   FeSO4           4.926e-08   4.931e-08    -7.308    -7.307     0.000     (0)  
   KSO4-           1.126e-08   1.048e-08    -7.949    -7.980    -0.031     (0)  
   HSO4-           1.971e-11   1.832e-11   -10.705   -10.737    -0.032     (0)  
   CaHSO4+         7.086e-14   6.583e-14   -13.150   -13.182    -0.032     (0)  
   FeHSO4+         1.570e-15   1.459e-15   -14.804   -14.836    -0.032     (0)  
   FeSO4+          1.243e-23   1.156e-23   -22.906   -22.937    -0.031     (0)  
   UO2SO4          1.354e-24   1.356e-24   -23.868   -23.868     0.000     (0)  
   Fe(SO4)2-       1.140e-26   1.059e-26   -25.943   -25.975    -0.032     (0)  
   UO2(SO4)2-2     7.450e-28   5.548e-28   -27.128   -27.256    -0.128     (0)  
   FeHSO4+2        1.871e-31   1.393e-31   -30.728   -30.856    -0.128     (0)  
   USO4+2          1.391e-36   1.035e-36   -35.857   -35.985    -0.128     (0)  
   U(SO4)2         3.603e-37   3.607e-37   -36.443   -36.443     0.000     (0)  
U(3)          0.000e+00
   U+3             0.000e+00   0.000e+00   -42.295   -42.583    -0.288     (0)  
U(4)          5.028e-14
   U(OH)4          5.028e-14   5.034e-14   -13.299   -13.298     0.000     (0)  
   U(OH)3+         8.917e-19   8.283e-19   -18.050   -18.082    -0.032     (0)  
   U(OH)2+2        2.315e-24   1.724e-24   -23.635   -23.763    -0.128     (0)  
   U(CO3)4-4       2.538e-25   7.802e-26   -24.596   -25.108    -0.512     (0)  
   U(CO3)5-6       1.547e-28   1.089e-29   -27.810   -28.963    -1.153     (0)  
   UOH+3           8.091e-31   4.167e-31   -30.092   -30.380    -0.288     (0)  
   USO4+2          1.391e-36   1.035e-36   -35.857   -35.985    -0.128     (0)  
   U(SO4)2         3.603e-37   3.607e-37   -36.443   -36.443     0.000     (0)  
   U+4             2.115e-38   6.504e-39   -37.675   -38.187    -0.512     (0)  
   UCl+3           1.736e-39   8.940e-40   -38.761   -39.049    -0.288     (0)  
   U6(OH)15+9      0.000e+00   0.000e+00  -118.528  -121.121    -2.593     (0)  
U(5)          1.915e-17
   UO2+            1.915e-17   1.779e-17   -16.718   -16.750    -0.032     (0)  
   UO2(CO3)3-5     4.119e-24   6.522e-25   -23.385   -24.186    -0.800     (0)  
U(6)          8.296e-16
   UO2(CO3)3-4     4.332e-16   1.332e-16   -15.363   -15.876    -0.512     (0)  
   UO2(CO3)2-2     3.782e-16   2.816e-16   -15.422   -15.550    -0.128     (0)  
   UO2(OH)3-       1.707e-17   1.586e-17   -16.768   -16.800    -0.032     (0)  
   UO2CO3          1.083e-18   1.084e-18   -17.966   -17.965     0.000     (0)  
   UO2OH+          3.458e-20   3.213e-20   -19.461   -19.493    -0.032     (0)  
   UO2(OH)4-2      7.498e-23   5.583e-23   -22.125   -22.253    -0.128     (0)  
   UO2+2           3.078e-23   2.292e-23   -22.512   -22.640    -0.128     (0)  
   UO2SO4          1.354e-24   1.356e-24   -23.868   -23.868     0.000     (0)  
   UO2Cl+          9.558e-26   8.879e-26   -25.020   -25.052    -0.032     (0)  
   UO2(SO4)2-2     7.450e-28   5.548e-28   -27.128   -27.256    -0.128     (0)  
   UO2Cl2          1.248e-29   1.249e-29   -28.904   -28.903     0.000     (0)  
   (UO2)2(OH)2+2   8.351e-35   6.219e-35   -34.078   -34.206    -0.128     (0)  
   (UO2)2OH+3      4.520e-40   2.328e-40   -39.345   -39.633    -0.288     (0)  
   (UO2)3(OH)7-    0.000e+00   0.000e+00   -40.461   -40.493    -0.032     (0)  
   (UO2)3(OH)5+    0.000e+00   0.000e+00   -41.704   -41.736    -0.032     (0)  
   (UO2)3(CO3)6-6   0.000e+00   0.000e+00   -42.498   -43.651    -1.153     (0)  
   (UO2)3(OH)4+2   0.000e+00   0.000e+00   -46.305   -46.433    -0.128     (0)  
   (UO2)4(OH)7+    0.000e+00   0.000e+00   -54.001   -54.033    -0.032     (0)  

------------------------------Saturation indices-------------------------------

  Phase               SI** log IAP   log K(298 K,   1 atm)

  Anhydrite        -3.54     -7.90   -4.36  CaSO4
  Aragonite        -0.14     -8.48   -8.34  CaCO3
  Artinite         -5.52      4.08    9.60  MgCO3:Mg(OH)2:3H2O
  B-UO2(OH)2      -11.49     -5.95    5.54  UO2(OH)2
  Brucite          -3.98     12.86   16.84  Mg(OH)2
  Calcite           0.00     -8.48   -8.48  CaCO3
  CH4(g)           -9.29    -12.15   -2.86  CH4
  CO2(g)           -3.50     -4.97   -1.47  CO2
  Dolomite         -0.18    -17.27  -17.09  CaMg(CO3)2
  Dolomite(d)      -0.73    -17.27  -16.54  CaMg(CO3)2
  Epsomite         -6.07     -8.21   -2.14  MgSO4:7H2O
  Fe(OH)2.7Cl.3     2.20     -0.84   -3.04  Fe(OH)2.7Cl0.3
  Fe(OH)3(a)       -2.45      2.44    4.89  Fe(OH)3
  Fe3(OH)8         -3.83     16.40   20.22  Fe3(OH)8
  FeS(ppt)         -3.51     -7.43   -3.92  FeS
  Goethite          3.44      2.44   -1.00  FeOOH
  Graphite         -2.39      3.64    6.03  C
  Greigite        -14.34    -59.38  -45.03  Fe3S4
  Gummite         -16.35     -5.95   10.40  UO3
  Gypsum           -3.32     -7.90   -4.58  CaSO4:2H2O
  H2(g)            -7.89    -11.04   -3.15  H2
  H2O(g)           -1.51     -0.00    1.51  H2O
  H2S(g)          -11.00    -12.00   -1.00  H2S
  Halite           -6.76     -5.18    1.58  NaCl
  Hematite          8.89      4.88   -4.01  Fe2O3
  Huntite          -4.87    -34.84  -29.97  CaMg3(CO3)4
  Hydromagnesite  -13.52    -22.28   -8.76  Mg5(CO3)4(OH)2:4H2O
  Jarosite(ss)    -21.82    -31.65   -9.83  (K0.77Na0.03H0.2)Fe3(SO4)2(OH)6
  Jarosite-K      -21.71    -30.92   -9.21  KFe3(SO4)2(OH)6
  Jarosite-Na     -23.79    -29.07   -5.28  NaFe3(SO4)2(OH)6
  JarositeH       -29.43    -34.82   -5.39  (H3O)Fe3(SO4)2(OH)6
  Mackinawite      -2.78     -7.43   -4.65  FeS
  Maghemite        -1.50      4.88    6.39  Fe2O3
  Magnesite        -0.76     -8.79   -8.03  MgCO3
  Magnetite        12.66     16.40    3.74  Fe3O4
  Melanterite      -7.35     -9.56   -2.21  FeSO4:7H2O
  Mirabilite       -8.47     -9.58   -1.11  Na2SO4:10H2O
  Na4UO2(CO3)3    -31.62    -47.91  -16.29  Na4UO2(CO3)3
  Nahcolite        -5.03     -5.57   -0.55  NaHCO3
  Natron           -8.85    -10.16   -1.31  Na2CO3:10H2O
  Nesquehonite     -3.16     -8.79   -5.62  MgCO3:3H2O
  O2(g)           -67.40    -70.29   -2.89  O2
  Portlandite      -9.63     13.17   22.80  Ca(OH)2
  Pyrite            0.00    -18.48  -18.48  FeS2
  Rutherfordine   -13.15    -27.60  -14.45  UO2CO3
  Schoepite       -11.35     -5.95    5.40  UO2(OH)2:H2O
  Siderite          0.76    -10.13  -10.89  FeCO3
  Siderite(d)(3)    0.32    -10.13  -10.45  FeCO3
  Sulfur           -8.94    -23.97  -15.03  S
  Thenardite       -9.40     -9.58   -0.18  Na2SO4
  Thermonatrite   -10.28    -10.16    0.13  Na2CO3:H2O
  Trona           -14.94    -15.73   -0.80  NaHCO3:Na2CO3:2H2O
  U(OH)2SO4       -22.67    -25.87   -3.20  U(OH)2SO4
  U3O8(c)         -19.14      1.39   20.53  U3O8
  U4O9(c)          -7.92    -11.31   -3.38  U4O9
  UO2(a)           -4.90     -4.80    0.10  UO2
  UO3(gamma)      -13.67     -5.95    7.72  UO3
  Uraninite(c)      0.00     -4.80   -4.80  UO2

**For a gas, SI = log10(fugacity). Fugacity = pressure * phi / 1 atm.
  For ideal gases, phi = 1.

------------------
End of simulation.
------------------

------------------------------------
Reading input data for simulation 4.
------------------------------------

-------------------------------
End of Run after 0.203 Seconds.
-------------------------------

