WARNING: Database file from DATABASE keyword is used; command line argument ignored.
   Input file: saver
  Output file: saver.out
Database file: ../database/phreeqc.dat

------------------
Reading data base.
------------------

	SOLUTION_MASTER_SPECIES
	SOLUTION_SPECIES
	PHASES
	EXCHANGE_MASTER_SPECIES
	EXCHANGE_SPECIES
	SURFACE_MASTER_SPECIES
	SURFACE_SPECIES
	CALCULATE_VALUES
	RATES
	END
------------------------------------
Reading input data for simulation 1.
------------------------------------

	DATABASE ../database/phreeqc.dat
	SELECTED_OUTPUT 101
	    file                 saver_101.sel
	USER_PUNCH 101
	    headings Mu SC
	    start
	10 PUNCH STR_F$(MU, 20, 12)
	20 PUNCH STR_F$(SC, 20, 10)
	    end
	knobs
		logfile
	PRINT
		status false
	SURFACE 1-2
		equilibrate with solution 1
		SurfOH	0.001	1071.	0.33
	SURFACE_MASTER_SPECIES
		Surf	SurfOH
	SURFACE_SPECIES
		SurfOH = SurfOH
		log_k	0.0
		SurfOH  + H+ = SurfOH2+
		log_k	6.3
		SurfOH = SurfO- + H+
		log_k	-7.1
		SurfOH + MoO4-2 + H+ = SurfMoO4- + H2O
		log_k	8.8
		SurfOH + MoO4-2 = SurfOHMoO4-2
		log_k	2.2
	SOLUTION_MASTER_SPECIES
		Mo	MoO4-2		1.0	160.94		95.94
	SOLUTION_SPECIES
		MoO4-2 = MoO4-2
		log_k	0.0
		MoO4-2 + H+ = HMoO4-
		log_k	4.24
		MoO4-2 + 2H+ = H2MoO4
		log_k	6.85
		MoO4-2 + Ca+2 = CaMoO4
		log_k	2.57
		MoO4-2 + Mg+2 = MgMoO4
		log_k	3.03
	REACTION 1-2  	Reaction test
		HCl  1.0
		1.0 mol in 2 steps
	REACTION_TEMPERATURE 1-2
		25.0 35.0 in 2 steps
	EXCHANGE 1-2
		CaX2	1.0 
		NaX     1.0
	SOLUTION 1-2	Seawater
		Temp 25.
		pH 8.22  # charge
		density 1.02
		pe  8.45 #	O2(g) -0.7
		units ppm
		Mo      1.0 ppb
		Ca	412.3   # Calcite
		Mg	1291.8
		Na	10768.0
		O(0)	8.	O2(g) -0.7	#equilibrium with atmospheric oxygen
		K	399.1
		Fe	2.0 ppb	N(5)/N(-3)	#units are ppb for iron
		Mn   	0.0002
		Al	0.002
		Ba	0.02
		Sr	8.14
		Si  	4.28
		Cl	19353.0
		Alkalinity	141.682	as HCO3	#concentration given as bicarbonate
		S(6)	2712.0 
		N(5) N(3)	0.290   as NO3
		B	24.45
		P	0.06    as PO4
		F	1.39
		Li	0.181
		Br	67.3
		N(-3)	0.03 	as NH4
		N(0)	1.0    	N2(g) -0.3	#equilibrium with atmospheric nitrogen
	PURE_PHASES 1-2  Complete phase assemblage
		Gibbsite	0.0     2.0
		Kaolinite	0.0     5.0
		Chalcedony	0.0     2.1
		Calcite		0.0 	1.0
		Dolomite	0.0     1.0
		Anhydrite	0.0     1.0
		Gypsum		0.0     1.0
		Siderite	0.0     1.0
		FeS(ppt)	0.0     1.0
		Goethite	0.0     1.0
		Sulfur		0.0     0.0
		Aragonite	0.0 	2.5
	GAS_PHASE 1-2
		pressure 	1.0
		volume		1.0
		temp		25.0
		CH4(g)          0.000001
		CO2(g)		0.000316
		O2(g)		0.2
		N2(g)		0.78
	USE SOLUTION 1
	USE SURFACE 1
	USE EXCHANGE 1
	USE PURE_PHASES 1
	USE REACTION 1
	USE GAS_PHASE 1
	USE REACTION_TEMPERATURE 1
	SAVE SOLUTION 3
	SAVE SURFACE 3
	SAVE EXCHANGE 3
	SAVE PURE_PHASES 3
	SAVE GAS_PHASE 3
	END
-------------------------------------------
Beginning of initial solution calculations.
-------------------------------------------

Initial solution 1.	Seawater

-----------------------------Solution composition------------------------------

	Elements           Molality       Moles

	Al                7.683e-08   7.683e-08
	Alkalinity        2.407e-03   2.407e-03
	B                 2.344e-03   2.344e-03
	Ba                1.509e-07   1.509e-07
	Br                8.730e-04   8.730e-04
	Ca                1.066e-02   1.066e-02
	Cl                5.658e-01   5.658e-01
	F                 7.583e-05   7.583e-05
	Fe                3.712e-08   3.712e-08
	K                 1.058e-02   1.058e-02
	Li                2.704e-05   2.704e-05
	Mg                5.507e-02   5.507e-02
	Mn                3.773e-09   3.773e-09
	Mo                6.440e-09   6.440e-09
	N(-3)             1.724e-06   1.724e-06
	N(0)              5.729e-04   5.729e-04  Equilibrium with N2(g)
	N(5) N(3)         4.848e-06   4.848e-06
	Na                4.855e-01   4.855e-01
	O(0)              4.380e-04   4.380e-04  Equilibrium with O2(g)
	P                 6.548e-07   6.548e-07
	S(6)              2.926e-02   2.926e-02
	Si                7.383e-05   7.383e-05
	Sr                9.629e-05   9.629e-05

----------------------------Description of solution----------------------------

                                       pH  =   8.220    
                                       pe  =   8.450    
      Specific Conductance (µS/cm,  25°C)  = 52893
                          Density (g/cm³)  =   1.02339
                               Volume (L)  =   1.01289
                        Viscosity (mPa s)  =   0.96019
                        Activity of water  =   0.981
                 Ionic strength (mol/kgw)  =   6.712e-01
                       Mass of water (kg)  =   1.000e+00
                    Total carbon (mol/kg)  =   1.954e-03
                       Total CO2 (mol/kg)  =   1.954e-03
                         Temperature (°C)  =  25.00
                  Electrical balance (eq)  =   6.433e-05
 Percent error, 100*(Cat-|An|)/(Cat+|An|)  =   0.01
                               Iterations  =   8
                                  Total H  = 1.110213e+02
                                  Total O  = 5.563691e+01

---------------------------------Redox couples---------------------------------

	Redox couple             pe  Eh (volts)

	N(-3)/N(0)          -4.3467     -0.2571
	N(-3)/N(5)           4.6747      0.2765
	N(0)/N(5)           10.0876      0.5967
	O(-2)/O(0)          12.4061      0.7339

----------------------------Distribution of species----------------------------

                                               Log       Log       Log    mole V
   Species          Molality    Activity  Molality  Activity     Gamma   cm³/mol

   OH-             2.703e-06   1.647e-06    -5.568    -5.783    -0.215     -2.63
   H+              7.982e-09   6.026e-09    -8.098    -8.220    -0.122      0.00
   H2O             5.551e+01   9.806e-01     1.744    -0.009     0.000     18.07
Al            7.683e-08
   Al(OH)4-        7.668e-08   4.963e-08    -7.115    -7.304    -0.189     (0)  
   Al(OH)3         1.386e-10   1.618e-10    -9.858    -9.791     0.067     (0)  
   Al(OH)2+        9.988e-12   6.748e-12   -11.001   -11.171    -0.170     (0)  
   AlOH+2          2.540e-14   5.290e-15   -13.595   -14.277    -0.681    -26.61
   AlF2+           1.300e-14   8.782e-15   -13.886   -14.056    -0.170     (0)  
   AlF+2           3.635e-15   7.573e-16   -14.439   -15.121    -0.681     (0)  
   AlF3            2.192e-15   2.558e-15   -14.659   -14.592     0.067     (0)  
   Al+3            4.110e-17   3.273e-18   -16.386   -17.485    -1.099    -40.24
   AlF4-           3.642e-17   2.357e-17   -16.439   -16.628    -0.189     (0)  
   AlSO4+          2.751e-17   1.780e-17   -16.560   -16.749    -0.189     (0)  
   Al(SO4)2-       1.497e-18   9.686e-19   -17.825   -18.014    -0.189     (0)  
   AlHSO4+2        3.064e-26   9.513e-27   -25.514   -26.022    -0.508     (0)  
B             2.344e-03
   H3BO3           2.040e-03   2.381e-03    -2.690    -2.623     0.067     39.23
   H2BO3-          3.046e-04   2.273e-04    -3.516    -3.643    -0.127     (0)  
   BF(OH)3-        2.938e-08   2.193e-08    -7.532    -7.659    -0.127     (0)  
   BF2(OH)2-       4.476e-13   3.341e-13   -12.349   -12.476    -0.127     (0)  
   BF3OH-          6.978e-20   5.209e-20   -19.156   -19.283    -0.127     (0)  
   BF4-            4.042e-26   3.017e-26   -25.393   -25.520    -0.127     (0)  
Ba            1.509e-07
   Ba+2            1.313e-07   2.606e-08    -6.882    -7.584    -0.702    -10.99
   BaSO4           1.926e-08   2.247e-08    -7.715    -7.648     0.067     (0)  
   BaHCO3+         2.996e-10   2.236e-10    -9.523    -9.650    -0.127     (0)  
   BaCO3           8.038e-11   9.381e-11   -10.095   -10.028     0.067    -10.70
   BaOH+           2.166e-13   1.437e-13   -12.664   -12.842    -0.178     (0)  
Br            8.730e-04
   Br-             8.730e-04   5.126e-04    -3.059    -3.290    -0.231     25.23
C(4)          1.954e-03
   HCO3-           1.325e-03   8.951e-04    -2.878    -3.048    -0.170     25.99
   MgHCO3+         2.394e-04   1.506e-04    -3.621    -3.822    -0.201      5.82
   NaHCO3          1.936e-04   2.637e-04    -3.713    -3.579     0.134     31.73
   MgCO3           8.191e-05   9.560e-05    -4.087    -4.020     0.067    -17.09
   CaHCO3+         4.104e-05   2.841e-05    -4.387    -4.547    -0.160      9.96
   CO3-2           3.344e-05   6.967e-06    -4.476    -5.157    -0.681     -0.52
   CaCO3           2.494e-05   2.911e-05    -4.603    -4.536     0.067    -14.60
   CO2             1.117e-05   1.237e-05    -4.952    -4.908     0.044     34.43
   KHCO3           2.553e-06   2.590e-06    -5.593    -5.587     0.006     41.03
   SrHCO3+         4.444e-07   3.002e-07    -6.352    -6.523    -0.170     (0)  
   SrCO3           8.355e-08   9.751e-08    -7.078    -7.011     0.067    -14.13
   BaHCO3+         2.996e-10   2.236e-10    -9.523    -9.650    -0.127     (0)  
   MnCO3           2.342e-10   2.733e-10    -9.630    -9.563     0.067     (0)  
   BaCO3           8.038e-11   9.381e-11   -10.095   -10.028     0.067    -10.70
   MnHCO3+         5.938e-11   3.940e-11   -10.226   -10.404    -0.178     (0)  
   (CO2)2          2.405e-12   2.807e-12   -11.619   -11.552     0.067     68.87
   FeCO3           8.637e-13   1.008e-12   -12.064   -11.997     0.067     (0)  
   FeHCO3+         7.233e-13   5.399e-13   -12.141   -12.268    -0.127     (0)  
Ca            1.066e-02
   Ca+2            9.944e-03   2.487e-03    -2.002    -2.604    -0.602    -16.70
   CaSO4           6.520e-04   7.610e-04    -3.186    -3.119     0.067      7.50
   CaHCO3+         4.104e-05   2.841e-05    -4.387    -4.547    -0.160      9.96
   CaCO3           2.494e-05   2.911e-05    -4.603    -4.536     0.067    -14.60
   CaOH+           8.999e-08   6.718e-08    -7.046    -7.173    -0.127     (0)  
   CaHPO4          3.235e-08   3.775e-08    -7.490    -7.423     0.067     (0)  
   CaPO4-          2.194e-08   1.482e-08    -7.659    -7.829    -0.170     (0)  
   CaMoO4          2.962e-10   3.458e-10    -9.528    -9.461     0.067     (0)  
   CaH2PO4+        2.531e-10   1.710e-10    -9.597    -9.767    -0.170     (0)  
   CaHSO4+         4.038e-11   3.014e-11   -10.394   -10.521    -0.127     (0)  
Cl            5.658e-01
   Cl-             5.658e-01   3.570e-01    -0.247    -0.447    -0.200     18.79
   MnCl+           1.083e-09   7.183e-10    -8.966    -9.144    -0.178     -2.79
   HCl             3.839e-10   7.411e-10    -9.416    -9.130     0.286     (0)  
   MnCl2           9.592e-11   1.119e-10   -10.018    -9.951     0.067     85.89
   MnCl3-          1.659e-11   1.101e-11   -10.780   -10.958    -0.178     45.78
   FeCl+           3.982e-12   2.973e-12   -11.400   -11.527    -0.127     (0)  
   FeCl+2          1.515e-18   2.937e-19   -17.820   -18.532    -0.713     (0)  
   FeCl2+          7.058e-19   4.683e-19   -18.151   -18.329    -0.178     (0)  
   FeCl3           1.433e-20   1.672e-20   -19.844   -19.777     0.067     (0)  
F             7.583e-05
   F-              3.798e-05   2.314e-05    -4.420    -4.636    -0.215     -0.58
   MgF+            3.397e-05   2.198e-05    -4.469    -4.658    -0.189    -10.25
   NaF             3.858e-06   4.503e-06    -5.414    -5.346     0.067      7.26
   BF(OH)3-        2.938e-08   2.193e-08    -7.532    -7.659    -0.127     (0)  
   HF              1.792e-10   2.091e-10    -9.747    -9.680     0.067     12.50
   BF2(OH)2-       4.476e-13   3.341e-13   -12.349   -12.476    -0.127     (0)  
   MnF+            1.192e-13   7.906e-14   -12.924   -13.102    -0.178     (0)  
   HF2-            2.487e-14   1.856e-14   -13.604   -13.731    -0.127     22.80
   AlF2+           1.300e-14   8.782e-15   -13.886   -14.056    -0.170     (0)  
   AlF+2           3.635e-15   7.573e-16   -14.439   -15.121    -0.681     (0)  
   AlF3            2.192e-15   2.558e-15   -14.659   -14.592     0.067     (0)  
   FeF+            1.870e-15   1.396e-15   -14.728   -14.855    -0.127     (0)  
   AlF4-           3.642e-17   2.357e-17   -16.439   -16.628    -0.189     (0)  
   FeF+2           5.153e-18   9.988e-19   -17.288   -18.001    -0.713     (0)  
   FeF2+           1.387e-18   9.201e-19   -17.858   -18.036    -0.178     (0)  
   BF3OH-          6.978e-20   5.209e-20   -19.156   -19.283    -0.127     (0)  
   FeF3            2.891e-20   3.374e-20   -19.539   -19.472     0.067     (0)  
   BF4-            4.042e-26   3.017e-26   -25.393   -25.520    -0.127     (0)  
   SiF6-2          1.409e-34   2.730e-35   -33.851   -34.564    -0.713     45.54
Fe(2)         3.390e-11
   Fe+2            2.628e-11   6.032e-12   -10.580   -11.220    -0.639    -20.71
   FeCl+           3.982e-12   2.973e-12   -11.400   -11.527    -0.127     (0)  
   FeSO4           1.581e-12   1.845e-12   -11.801   -11.734     0.067     18.97
   FeCO3           8.637e-13   1.008e-12   -12.064   -11.997     0.067     (0)  
   FeHCO3+         7.233e-13   5.399e-13   -12.141   -12.268    -0.127     (0)  
   FeOH+           4.678e-13   3.104e-13   -12.330   -12.508    -0.178     (0)  
   FeF+            1.870e-15   1.396e-15   -14.728   -14.855    -0.127     (0)  
   FeHPO4          5.695e-16   6.647e-16   -15.244   -15.177     0.067     (0)  
   Fe(OH)2         3.684e-16   4.299e-16   -15.434   -15.367     0.067     (0)  
   FeH2PO4+        1.202e-17   8.121e-18   -16.920   -17.090    -0.170     (0)  
   Fe(OH)3-        3.918e-18   2.599e-18   -17.407   -17.585    -0.178     (0)  
   FeHSO4+         9.790e-20   7.308e-20   -19.009   -19.136    -0.127     (0)  
Fe(3)         3.708e-08
   Fe(OH)3         2.770e-08   3.233e-08    -7.558    -7.490     0.067     (0)  
   Fe(OH)4-        7.102e-09   4.798e-09    -8.149    -8.319    -0.170     (0)  
   Fe(OH)2+        2.283e-09   1.542e-09    -8.642    -8.812    -0.170     (0)  
   FeOH+2          1.476e-13   2.862e-14   -12.831   -13.543    -0.713     (0)  
   FeF+2           5.153e-18   9.988e-19   -17.288   -18.001    -0.713     (0)  
   FeCl+2          1.515e-18   2.937e-19   -17.820   -18.532    -0.713     (0)  
   FeF2+           1.387e-18   9.201e-19   -17.858   -18.036    -0.178     (0)  
   FeSO4+          7.743e-19   5.138e-19   -18.111   -18.289    -0.178     (0)  
   FeCl2+          7.058e-19   4.683e-19   -18.151   -18.329    -0.178     (0)  
   Fe+3            3.420e-19   2.724e-20   -18.466   -19.565    -1.099     (0)  
   FeF3            2.891e-20   3.374e-20   -19.539   -19.472     0.067     (0)  
   Fe(SO4)2-       2.590e-20   1.934e-20   -19.587   -19.714    -0.127     (0)  
   FeCl3           1.433e-20   1.672e-20   -19.844   -19.777     0.067     (0)  
   FeHPO4+         3.058e-22   2.029e-22   -21.515   -21.693    -0.178     (0)  
   FeH2PO4+2       9.454e-23   1.969e-23   -22.024   -22.706    -0.681     (0)  
   Fe2(OH)2+4      2.371e-24   2.204e-26   -23.625   -25.657    -2.032     (0)  
   FeHSO4+2        2.670e-26   8.290e-27   -25.574   -26.081    -0.508     (0)  
   Fe3(OH)4+5      1.061e-29   7.102e-33   -28.974   -32.149    -3.175     (0)  
H(0)          5.545e-37
   H2              2.773e-37   3.236e-37   -36.557   -36.490     0.067     28.61
K             1.058e-02
   K+              1.039e-02   6.479e-03    -1.983    -2.189    -0.205      9.66
   KSO4-           1.871e-04   1.696e-04    -3.728    -3.771    -0.043     11.34
   KHCO3           2.553e-06   2.590e-06    -5.593    -5.587     0.006     41.03
   KHPO4-          5.176e-10   3.497e-10    -9.286    -9.456    -0.170     39.62
Li            2.704e-05
   Li+             2.683e-05   1.857e-05    -4.571    -4.731    -0.160     -0.71
   LiSO4-          2.101e-07   1.394e-07    -6.677    -6.856    -0.178     (0)  
Mg            5.507e-02
   Mg+2            4.982e-02   1.438e-02    -1.303    -1.842    -0.540    -20.41
   MgSO4           4.755e-03   6.477e-03    -2.323    -2.189     0.134     -7.92
   MgHCO3+         2.394e-04   1.506e-04    -3.621    -3.822    -0.201      5.82
   Mg(SO4)2-2      1.296e-04   3.670e-05    -3.887    -4.435    -0.548     32.92
   MgCO3           8.191e-05   9.560e-05    -4.087    -4.020     0.067    -17.09
   MgF+            3.397e-05   2.198e-05    -4.469    -4.658    -0.189    -10.25
   MgOH+           1.206e-05   8.496e-06    -4.919    -5.071    -0.152     (0)  
   MgHPO4          2.528e-07   2.951e-07    -6.597    -6.530     0.067     (0)  
   MgPO4-          1.711e-07   1.156e-07    -6.767    -6.937    -0.170     (0)  
   MgMoO4          4.939e-09   5.764e-09    -8.306    -8.239     0.067     (0)  
   MgH2PO4+        1.863e-09   1.259e-09    -8.730    -8.900    -0.170     (0)  
Mn(2)         3.773e-09
   Mn+2            2.152e-09   4.939e-10    -8.667    -9.306    -0.639    -16.37
   MnCl+           1.083e-09   7.183e-10    -8.966    -9.144    -0.178     -2.79
   MnCO3           2.342e-10   2.733e-10    -9.630    -9.563     0.067     (0)  
   MnSO4           1.295e-10   1.511e-10    -9.888    -9.821     0.067     22.54
   MnCl2           9.592e-11   1.119e-10   -10.018    -9.951     0.067     85.89
   MnHCO3+         5.938e-11   3.940e-11   -10.226   -10.404    -0.178     (0)  
   MnCl3-          1.659e-11   1.101e-11   -10.780   -10.958    -0.178     45.78
   MnOH+           3.113e-12   2.066e-12   -11.507   -11.685    -0.178     (0)  
   MnF+            1.192e-13   7.906e-14   -12.924   -13.102    -0.178     (0)  
   Mn(OH)3-        5.084e-20   3.373e-20   -19.294   -19.472    -0.178     (0)  
   Mn(NO3)2        1.365e-20   1.593e-20   -19.865   -19.798     0.067     41.04
Mn(3)         5.402e-26
   Mn+3            5.402e-26   4.301e-27   -25.267   -26.366    -1.099     (0)  
Mo            6.440e-09
   MgMoO4          4.939e-09   5.764e-09    -8.306    -8.239     0.067     (0)  
   MoO4-2          1.205e-09   3.741e-10    -8.919    -9.427    -0.508     (0)  
   CaMoO4          2.962e-10   3.458e-10    -9.528    -9.461     0.067     (0)  
   HMoO4-          5.248e-14   3.918e-14   -13.280   -13.407    -0.127     (0)  
   H2MoO4          8.239e-20   9.616e-20   -19.084   -19.017     0.067     (0)  
N(-3)         1.724e-06
   NH4+            1.618e-06   9.103e-07    -5.791    -6.041    -0.250     18.48
   NH3             7.376e-08   8.609e-08    -7.132    -7.065     0.067     24.42
   NH4SO4-         3.205e-08   1.999e-08    -7.494    -7.699    -0.205     18.68
N(0)          5.729e-04
   N2              2.865e-04   3.343e-04    -3.543    -3.476     0.067     29.29
N(3)          8.395e-11
   NO2-            8.395e-11   4.930e-11   -10.076   -10.307    -0.231     25.71
N(5)          4.847e-06
   NO3-            4.847e-06   2.847e-06    -5.314    -5.546    -0.231     30.29
   Mn(NO3)2        1.365e-20   1.593e-20   -19.865   -19.798     0.067     41.04
Na            4.855e-01
   Na+             4.713e-01   3.382e-01    -0.327    -0.471    -0.144     -0.51
   NaSO4-          1.396e-02   9.471e-03    -1.855    -2.024    -0.168      8.23
   NaHCO3          1.936e-04   2.637e-04    -3.713    -3.579     0.134     31.73
   NaF             3.858e-06   4.503e-06    -5.414    -5.346     0.067      7.26
   NaHPO4-         2.702e-08   1.825e-08    -7.568    -7.739    -0.170     81.25
   NaOH            4.773e-17   5.571e-17   -16.321   -16.254     0.067     (0)  
O(0)          4.380e-04
   O2              2.190e-04   2.556e-04    -3.660    -3.592     0.067     30.40
P             6.548e-07
   MgHPO4          2.528e-07   2.951e-07    -6.597    -6.530     0.067     (0)  
   MgPO4-          1.711e-07   1.156e-07    -6.767    -6.937    -0.170     (0)  
   HPO4-2          1.428e-07   2.768e-08    -6.845    -7.558    -0.713      9.68
   CaHPO4          3.235e-08   3.775e-08    -7.490    -7.423     0.067     (0)  
   NaHPO4-         2.702e-08   1.825e-08    -7.568    -7.739    -0.170     81.25
   CaPO4-          2.194e-08   1.482e-08    -7.659    -7.829    -0.170     (0)  
   H2PO4-          3.977e-09   2.687e-09    -8.400    -8.571    -0.170     34.71
   MgH2PO4+        1.863e-09   1.259e-09    -8.730    -8.900    -0.170     (0)  
   KHPO4-          5.176e-10   3.497e-10    -9.286    -9.456    -0.170     39.62
   CaH2PO4+        2.531e-10   1.710e-10    -9.597    -9.767    -0.170     (0)  
   PO4-3           1.340e-10   2.071e-12    -9.873   -11.684    -1.811    -17.21
   H3PO4           2.042e-15   2.383e-15   -14.690   -14.623     0.067     47.41
   FeHPO4          5.695e-16   6.647e-16   -15.244   -15.177     0.067     (0)  
   FeH2PO4+        1.202e-17   8.121e-18   -16.920   -17.090    -0.170     (0)  
   FeHPO4+         3.058e-22   2.029e-22   -21.515   -21.693    -0.178     (0)  
   FeH2PO4+2       9.454e-23   1.969e-23   -22.024   -22.706    -0.681     (0)  
S(6)          2.926e-02
   NaSO4-          1.396e-02   9.471e-03    -1.855    -2.024    -0.168      8.23
   SO4-2           9.441e-03   1.720e-03    -2.025    -2.764    -0.739     38.43
   MgSO4           4.755e-03   6.477e-03    -2.323    -2.189     0.134     -7.92
   CaSO4           6.520e-04   7.610e-04    -3.186    -3.119     0.067      7.50
   KSO4-           1.871e-04   1.696e-04    -3.728    -3.771    -0.043     11.34
   Mg(SO4)2-2      1.296e-04   3.670e-05    -3.887    -4.435    -0.548     32.92
   SrSO4           6.301e-06   7.354e-06    -5.201    -5.133     0.067     24.24
   LiSO4-          2.101e-07   1.394e-07    -6.677    -6.856    -0.178     (0)  
   NH4SO4-         3.205e-08   1.999e-08    -7.494    -7.699    -0.205     18.68
   BaSO4           1.926e-08   2.247e-08    -7.715    -7.648     0.067     (0)  
   HSO4-           1.350e-09   1.008e-09    -8.870    -8.997    -0.127     40.96
   MnSO4           1.295e-10   1.511e-10    -9.888    -9.821     0.067     22.54
   CaHSO4+         4.038e-11   3.014e-11   -10.394   -10.521    -0.127     (0)  
   FeSO4           1.581e-12   1.845e-12   -11.801   -11.734     0.067     18.97
   AlSO4+          2.751e-17   1.780e-17   -16.560   -16.749    -0.189     (0)  
   Al(SO4)2-       1.497e-18   9.686e-19   -17.825   -18.014    -0.189     (0)  
   FeSO4+          7.743e-19   5.138e-19   -18.111   -18.289    -0.178     (0)  
   FeHSO4+         9.790e-20   7.308e-20   -19.009   -19.136    -0.127     (0)  
   Fe(SO4)2-       2.590e-20   1.934e-20   -19.587   -19.714    -0.127     (0)  
   AlHSO4+2        3.064e-26   9.513e-27   -25.514   -26.022    -0.508     (0)  
   FeHSO4+2        2.670e-26   8.290e-27   -25.574   -26.081    -0.508     (0)  
Si            7.383e-05
   H4SiO4          7.063e-05   8.243e-05    -4.151    -4.084     0.067     52.08
   H3SiO4-         3.206e-06   2.017e-06    -5.494    -5.695    -0.201     28.72
   H2SiO4-2        1.093e-10   2.277e-11    -9.961   -10.643    -0.681     (0)  
   SiF6-2          1.409e-34   2.730e-35   -33.851   -34.564    -0.713     45.54
Sr            9.629e-05
   Sr+2            8.946e-05   2.192e-05    -4.048    -4.659    -0.611    -16.54
   SrSO4           6.301e-06   7.354e-06    -5.201    -5.133     0.067     24.24
   SrHCO3+         4.444e-07   3.002e-07    -6.352    -6.523    -0.170     (0)  
   SrCO3           8.355e-08   9.751e-08    -7.078    -7.011     0.067    -14.13
   SrOH+           2.758e-10   1.830e-10    -9.559    -9.738    -0.178     (0)  

------------------------------Saturation indices-------------------------------

  Phase               SI** log IAP   log K(298 K,   1 atm)

  Al(OH)3(a)       -3.65      7.15   10.80  Al(OH)3
  Albite           -1.96    -19.96  -18.00  NaAlSi3O8
  Alunite          -9.50    -10.90   -1.40  KAl3(SO4)2(OH)6
  Anhydrite        -1.09     -5.37   -4.28  CaSO4
  Anorthite        -5.60    -25.31  -19.71  CaAl2Si2O8
  Aragonite         0.57     -7.76   -8.34  CaCO3
  Arcanite         -5.26     -7.14   -1.88  K2SO4
  Barite           -0.50    -10.35   -9.84  BaSO4
  Ca-Montmorillonite  -3.75    -48.77  -45.03  Ca0.165Al2.33Si3.67O10(OH)2
  Calcite           0.72     -7.76   -8.48  CaCO3
  Celestite        -0.77     -7.42   -6.66  SrSO4
  Chalcedony       -0.52     -4.07   -3.55  SiO2
  Chlorite(14A)     6.66     75.04   68.38  Mg5Al2Si3O10(OH)8
  Chrysotile        3.42     35.62   32.20  Mg3Si2O5(OH)4
  CO2(g)           -3.44     -4.91   -1.47  CO2	 Pressure   0.0 atm, phi 0.996
  Dolomite          2.32    -14.76  -17.08  CaMg(CO3)2
  Epsomite         -2.93     -4.67   -1.74  MgSO4:7H2O
  Fe(OH)3(a)        0.18      5.07    4.89  Fe(OH)3
  Fluorite         -1.28    -11.88  -10.60  CaF2
  Gibbsite         -0.96      7.15    8.11  Al(OH)3
  Goethite          6.08      5.08   -1.00  FeOOH
  Gypsum           -0.80     -5.39   -4.58  CaSO4:2H2O
  H2(g)           -33.39    -36.49   -3.10  H2
  H2O(g)           -1.51     -0.01    1.50  H2O
  Halite           -2.49     -0.92    1.57  NaCl
  Hausmannite      -6.32     54.71   61.03  Mn3O4
  Hematite         14.17     10.16   -4.01  Fe2O3
  Hexahydrite      -3.09     -4.66   -1.57  MgSO4:6H2O
  Hydroxyapatite    0.60     -2.82   -3.42  Ca5(PO4)3OH
  Illite           -2.37    -42.64  -40.27  K0.6Mg0.25Al2.3Si3.5O10(OH)2
  Jarosite-K       -7.93    -17.14   -9.21  KFe3(SO4)2(OH)6
  K-feldspar       -1.10    -21.68  -20.57  KAlSi3O8
  K-mica            2.60     15.30   12.70  KAl3Si3O10(OH)2
  Kaolinite        -1.26      6.17    7.43  Al2Si2O5(OH)4
  Kieserite        -3.45     -4.62   -1.16  MgSO4:H2O
  Manganite        -1.55     23.79   25.34  MnOOH
  Melanterite     -11.83    -14.04   -2.21  FeSO4:7H2O
  Mirabilite       -2.55     -3.79   -1.24  Na2SO4:10H2O
  N2(g)            -0.30     -3.48   -3.18  N2	 Pressure   0.5 atm, phi 1.000
  NH3(g)           -8.86     -7.07    1.80  NH3
  O2(g)            -0.70     -3.59   -2.89  O2	 Pressure   0.2 atm, phi 1.000
  Pyrochroite      -8.08      7.12   15.20  Mn(OH)2
  Pyrolusite       -0.93     40.45   41.38  MnO2:H2O
  Quartz           -0.09     -4.07   -3.98  SiO2
  Rhodochrosite    -3.33    -14.46  -11.13  MnCO3
  Sepiolite         1.19     16.95   15.76  Mg2Si3O7.5OH:3H2O
  Sepiolite(d)     -1.71     16.95   18.66  Mg2Si3O7.5OH:3H2O
  Siderite         -5.49    -16.38  -10.89  FeCO3
  SiO2(a)          -1.36     -4.07   -2.71  SiO2
  Strontianite     -0.55     -9.82   -9.27  SrCO3
  Sylvite          -3.54     -2.64    0.90  KCl
  Talc              6.09     27.49   21.40  Mg3Si4O10(OH)2
  Thenardite       -3.41     -3.71   -0.30  Na2SO4
  Vivianite       -21.09    -57.09  -36.00  Fe3(PO4)2:8H2O
  Witherite        -4.18    -12.74   -8.56  BaCO3

**For a gas, SI = log10(fugacity). Fugacity = pressure * phi / 1 atm.
  For ideal gases, phi = 1.

------------------------------------------------------
Beginning of initial surface-composition calculations.
------------------------------------------------------

Surface 1.	

Diffuse Double Layer Surface-Complexation Model

Surf          
	 -4.964e-04  Surface charge, eq
	 -1.355e-01  sigma, C/m²
	 -5.878e-02  psi, V
	  2.288e+00  -F*psi/RT
	  9.853e+00  exp(-F*psi/RT)
	  1.071e+03  specific area, m²/g
	  3.534e+02  m² for   3.300e-01 g


Surf          
	  1.000e-03  moles
	                                   Mole                     Log
	Species               Moles    Fraction    Molality    Molality

	SurfO-            5.447e-04       0.545   5.447e-04      -3.264
	SurfOH            4.071e-04       0.407   4.071e-04      -3.390
	SurfOH2+          4.822e-05       0.048   4.822e-05      -4.317
	SurfOHMoO4-2      2.486e-13       0.000   2.486e-13     -12.604
	SurfMoO4-         5.993e-14       0.000   5.993e-14     -13.222

-----------------------------------------
Beginning of batch-reaction calculations.
-----------------------------------------

Reaction step 1.

Using solution 1.	Seawater
Using exchange 1.	
Using surface 1.	
Using pure phase assemblage 1.	Complete phase assemblage
Using gas phase 1.	
Using temperature 1.	
Using reaction 1.	Reaction test

Reaction 1.	Reaction test

	  5.000e-01 moles of the following reaction have been added:

	                 Relative
	Reactant            moles

	HCl                  1.00000

	                 Relative
	Element             moles
	Cl                   1.00000
	H                    1.00000

-----------------------------------Gas phase-----------------------------------

Total pressure:  1.00      atmospheres          (Peng-Robinson calculation)
    Gas volume:   8.39e-01 liters
  Molar volume:   2.44e+01 liters/mole
   P * Vm / RT:  0.99916  (Compressibility Factor Z) 

                                                        Moles in gas
                                            ----------------------------------
Component         log P           P    phi     Initial       Final       Delta

CH4(g)            -5.85   1.418e-06  0.998   4.089e-08   4.868e-08   7.790e-09
CO2(g)            -0.94   1.145e-01  0.996   1.292e-05   3.928e-03   3.915e-03
N2(g)             -0.05   8.855e-01  1.000   3.190e-02   3.039e-02  -1.504e-03
O2(g)            -67.89   1.298e-68  0.999   8.179e-03   0.000e+00  -8.179e-03

-------------------------------Phase assemblage--------------------------------

                                                      Moles in assemblage
Phase               SI  log IAP  log K(T, P)   Initial       Final       Delta

Anhydrite        -0.28    -4.55     -4.28    1.000e+00           0  -1.000e+00
Aragonite        -0.14    -8.48     -8.34    2.500e+00           0  -2.500e+00
Calcite           0.00    -8.48     -8.48    1.000e+00   3.881e+00   2.881e+00
Chalcedony       -0.00    -3.55     -3.55    2.100e+00   9.989e-02  -2.000e+00
Dolomite          0.00   -17.08    -17.08    1.000e+00   6.687e-01  -3.313e-01
FeS(ppt)         -0.00    -3.92     -3.92    1.000e+00   9.648e-01  -3.515e-02
Gibbsite         -0.85     7.26      8.11    2.000e+00           0  -2.000e+00
Goethite          0.00    -1.00     -1.00    1.000e+00   7.607e-01  -2.393e-01
Gypsum            0.00    -4.58     -4.58    1.000e+00   2.048e+00   1.048e+00
Kaolinite         0.00     7.44      7.43    5.000e+00   6.000e+00   1.000e+00
Siderite          0.00   -10.89    -10.89    1.000e+00   1.272e+00   2.716e-01
Sulfur           -2.41     2.47      4.88    0.000e+00           0   0.000e+00

------------------------------Surface composition------------------------------

Diffuse Double Layer Surface-Complexation Model

Surf          
	  2.743e-04  Surface charge, eq
	  7.490e-02  sigma, C/m²
	  2.656e-02  psi, V
	 -1.034e+00  -F*psi/RT
	  3.556e-01  exp(-F*psi/RT)
	  1.071e+03  specific area, m²/g
	  3.534e+02  m² for   3.300e-01 g


Surf          
	  1.000e-03  moles
	                                   Mole                     Log
	Species               Moles    Fraction    Molality    Molality

	SurfOH            5.100e-04       0.510   5.168e-04      -3.287
	SurfOH2+          3.822e-04       0.382   3.873e-04      -3.412
	SurfO-            1.078e-04       0.108   1.093e-04      -3.961
	SurfMoO4-         1.475e-10       0.000   1.494e-10      -9.826
	SurfOHMoO4-2      9.542e-11       0.000   9.669e-11     -10.015

-----------------------------Exchange composition------------------------------

X                3.000e+00 mol

	                               Equiv-    Equivalent      Log 
	Species             Moles      alents      Fraction     Gamma

	NaX               9.811e-01   9.811e-01   3.270e-01    -0.119
	CaX2              7.275e-01   1.455e+00   4.850e-01    -0.589
	MgX2              2.743e-01   5.485e-01   1.828e-01    -0.490
	KX                9.601e-03   9.601e-03   3.200e-03    -0.235
	NH4X              2.177e-03   2.177e-03   7.256e-04     0.000
	FeX2              1.685e-03   3.370e-03   1.123e-03    -0.724
	SrX2              8.033e-05   1.607e-04   5.356e-05    -0.624
	LiX               1.677e-05   1.677e-05   5.589e-06    -0.181
	BaX2              1.256e-07   2.513e-07   8.376e-08    -0.731
	MnX2              1.943e-09   3.887e-09   1.296e-09    -0.724
	AlOHX2            9.139e-10   1.828e-09   6.093e-10     0.063
	AlX3              2.672e-10   8.015e-10   2.672e-10    -1.207

-----------------------------Solution composition------------------------------

	Elements           Molality       Moles

	Al                5.827e-08   5.750e-08
	B                 2.376e-03   2.344e-03
	Ba                2.564e-08   2.530e-08
	Br                8.847e-04   8.730e-04
	C                 8.503e-03   8.391e-03
	Ca                1.884e-01   1.859e-01
	Cl                1.080e+00   1.066e+00
	F                 7.685e-05   7.583e-05
	Fe                1.209e-03   1.193e-03
	K                 9.910e-04   9.779e-04
	Li                1.041e-05   1.027e-05
	Mg                1.137e-01   1.122e-01
	Mn                1.854e-09   1.830e-09
	Mo                6.281e-09   6.198e-09
	N                 1.430e-03   1.411e-03
	Na                5.111e-01   5.044e-01
	P                 6.636e-07   6.548e-07
	S                 1.681e-02   1.659e-02
	Si                1.908e-04   1.883e-04
	Sr                1.617e-05   1.596e-05

----------------------------Description of solution----------------------------

                                       pH  =   5.976      Charge balance
                                       pe  =  -2.144      Adjusted to redox equilibrium
      Specific Conductance (µS/cm,  25°C)  = 85141
                          Density (g/cm³)  =   1.04297
                               Volume (L)  =   1.00555
                        Viscosity (mPa s)  =   1.03716
                        Activity of water  =   0.968
                 Ionic strength (mol/kgw)  =   1.396e+00
                       Mass of water (kg)  =   9.868e-01
                 Total alkalinity (eq/kg)  =   5.375e-03
                       Total CO2 (mol/kg)  =   8.503e-03
                         Temperature (°C)  =  25.00
                  Electrical balance (eq)  =  -7.065e-04
 Percent error, 100*(Cat-|An|)/(Cat+|An|)  =  -0.03
                               Iterations  =  18
                                  Total H  = 1.095598e+02
                                  Total O  = 5.486846e+01

----------------------------Distribution of species----------------------------

                                               Log       Log       Log    mole V
   Species          Molality    Activity  Molality  Activity     Gamma   cm³/mol

   H+              1.438e-06   1.056e-06    -5.842    -5.976    -0.134      0.00
   OH-             1.670e-08   9.271e-09    -7.777    -8.033    -0.256     -1.50
   H2O             5.551e+01   9.675e-01     1.744    -0.014     0.000     18.07
Al            5.827e-08
   AlF2+           3.211e-08   2.051e-08    -7.493    -7.688    -0.195     (0)  
   AlF+2           1.873e-08   3.119e-09    -7.727    -8.506    -0.779     (0)  
   AlF3            2.457e-09   3.388e-09    -8.610    -8.470     0.140     (0)  
   Al(OH)2+        2.431e-09   1.553e-09    -8.614    -8.809    -0.195     (0)  
   AlOH+2          1.299e-09   2.163e-10    -8.886    -9.665    -0.779    -26.43
   Al(OH)4-        5.995e-10   3.618e-10    -9.222    -9.442    -0.219     (0)  
   Al+3            3.829e-10   2.377e-11    -9.417   -10.624    -1.207    -39.76
   Al(OH)3         1.519e-10   2.095e-10    -9.818    -9.679     0.140     (0)  
   AlSO4+          7.375e-11   4.450e-11   -10.132   -10.352    -0.219     (0)  
   AlF4-           2.933e-11   1.770e-11   -10.533   -10.752    -0.219     (0)  
   Al(SO4)2-       1.381e-12   8.331e-13   -11.860   -12.079    -0.219     (0)  
   AlHSO4+2        7.421e-18   4.168e-18   -17.130   -17.380    -0.251     (0)  
B             2.376e-03
   H3BO3           2.374e-03   3.274e-03    -2.625    -2.485     0.140     39.23
   H2BO3-          2.060e-06   1.783e-06    -5.686    -5.749    -0.063     (0)  
   BF(OH)3-        1.975e-08   1.710e-08    -7.704    -7.767    -0.063     (0)  
   BF2(OH)2-       3.032e-11   2.625e-11   -10.518   -10.581    -0.063     (0)  
   BF3OH-          4.762e-16   4.123e-16   -15.322   -15.385    -0.063     (0)  
   BF4-            2.779e-20   2.406e-20   -19.556   -19.619    -0.063     (0)  
Ba            2.564e-08
   Ba+2            2.458e-08   4.569e-09    -7.609    -8.340    -0.731    -10.20
   BaSO4           9.830e-10   1.356e-09    -9.007    -8.868     0.140     (0)  
   BaHCO3+         7.994e-11   6.921e-11   -10.097   -10.160    -0.063     (0)  
   BaCO3           1.201e-13   1.656e-13   -12.921   -12.781     0.140    -10.70
   BaOH+           2.273e-16   1.418e-16   -15.643   -15.848    -0.205     (0)  
Br            8.847e-04
   Br-             8.847e-04   4.660e-04    -3.053    -3.332    -0.278     25.50
C(-4)         1.620e-09
   CH4             1.620e-09   2.234e-09    -8.791    -8.651     0.140     35.46
C(4)          8.503e-03
   CO2             3.137e-03   3.879e-03    -2.503    -2.411     0.092     34.43
   HCO3-           2.474e-03   1.580e-03    -2.607    -2.801    -0.195     27.21
   CaHCO3+         1.444e-03   9.516e-04    -2.840    -3.022    -0.181     10.00
   MgHCO3+         1.129e-03   6.558e-04    -2.947    -3.183    -0.236      5.88
   NaHCO3          2.780e-04   5.288e-04    -3.556    -3.277     0.279     31.73
   FeHCO3+         3.352e-05   2.902e-05    -4.475    -4.537    -0.063     (0)  
   CaCO3           4.034e-06   5.563e-06    -5.394    -5.255     0.140    -14.60
   MgCO3           1.722e-06   2.375e-06    -5.764    -5.624     0.140    -17.09
   CO3-2           4.214e-07   7.016e-08    -6.375    -7.154    -0.779      1.28
   KHCO3           3.935e-07   4.056e-07    -6.405    -6.392     0.013     41.03
   FeCO3           2.241e-07   3.090e-07    -6.650    -6.510     0.140     (0)  
   (CO2)2          2.002e-07   2.762e-07    -6.698    -6.559     0.140     68.87
   SrHCO3+         1.415e-07   9.038e-08    -6.849    -7.044    -0.195     (0)  
   SrCO3           1.214e-10   1.675e-10    -9.916    -9.776     0.140    -14.13
   BaHCO3+         7.994e-11   6.921e-11   -10.097   -10.160    -0.063     (0)  
   MnHCO3+         3.977e-11   2.481e-11   -10.400   -10.605    -0.205     (0)  
   MnCO3           7.118e-13   9.816e-13   -12.148   -12.008     0.140     (0)  
   BaCO3           1.201e-13   1.656e-13   -12.921   -12.781     0.140    -10.70
Ca            1.884e-01
   Ca+2            1.834e-01   4.720e-02    -0.737    -1.326    -0.589    -16.24
   CaSO4           3.603e-03   4.969e-03    -2.443    -2.304     0.140      7.50
   CaHCO3+         1.444e-03   9.516e-04    -2.840    -3.022    -0.181     10.00
   CaCO3           4.034e-06   5.563e-06    -5.394    -5.255     0.140    -14.60
   CaH2PO4+        1.543e-07   9.854e-08    -6.812    -7.006    -0.195     (0)  
   CaHPO4          9.000e-08   1.241e-07    -7.046    -6.906     0.140     (0)  
   CaHSO4+         3.985e-08   3.450e-08    -7.400    -7.462    -0.063     (0)  
   CaOH+           8.288e-09   7.175e-09    -8.082    -8.144    -0.063     (0)  
   CaMoO4          1.898e-09   2.618e-09    -8.722    -8.582     0.140     (0)  
   CaPO4-          4.352e-10   2.780e-10    -9.361    -9.556    -0.195     (0)  
Cl            1.080e+00
   Cl-             1.080e+00   6.411e-01     0.033    -0.193    -0.226     19.10
   FeCl+           1.877e-04   1.625e-04    -3.727    -3.789    -0.063     (0)  
   HCl             5.939e-08   2.333e-07    -7.226    -6.632     0.594     (0)  
   MnCl+           7.375e-10   4.601e-10    -9.132    -9.337    -0.205     -2.74
   MnCl2           9.336e-11   1.288e-10   -10.030    -9.890     0.140     85.89
   MnCl3-          3.644e-11   2.274e-11   -10.438   -10.643    -0.205     47.96
   FeCl+2          1.609e-17   2.438e-18   -16.793   -17.613    -0.820     (0)  
   FeCl2+          1.119e-17   6.981e-18   -16.951   -17.156    -0.205     (0)  
   FeCl3           3.245e-19   4.476e-19   -18.489   -18.349     0.140     (0)  
F             7.685e-05
   MgF+            5.096e-05   3.075e-05    -4.293    -4.512    -0.219    -10.20
   F-              2.363e-05   1.312e-05    -4.627    -4.882    -0.256     -0.24
   NaF             2.104e-06   2.901e-06    -5.677    -5.537     0.140      7.26
   AlF2+           3.211e-08   2.051e-08    -7.493    -7.688    -0.195     (0)  
   FeF+            2.783e-08   2.409e-08    -7.555    -7.618    -0.063     (0)  
   BF(OH)3-        1.975e-08   1.710e-08    -7.704    -7.767    -0.063     (0)  
   AlF+2           1.873e-08   3.119e-09    -7.727    -8.506    -0.779     (0)  
   HF              1.507e-08   2.079e-08    -7.822    -7.682     0.140     12.50
   AlF3            2.457e-09   3.388e-09    -8.610    -8.470     0.140     (0)  
   BF2(OH)2-       3.032e-11   2.625e-11   -10.518   -10.581    -0.063     (0)  
   AlF4-           2.933e-11   1.770e-11   -10.533   -10.752    -0.219     (0)  
   HF2-            1.209e-12   1.046e-12   -11.918   -11.980    -0.063     23.15
   MnF+            2.563e-14   1.599e-14   -13.591   -13.796    -0.205     (0)  
   BF3OH-          4.762e-16   4.123e-16   -15.322   -15.385    -0.063     (0)  
   FeF+2           1.729e-17   2.618e-18   -16.762   -17.582    -0.820     (0)  
   FeF2+           2.192e-18   1.368e-18   -17.659   -17.864    -0.205     (0)  
   BF4-            2.779e-20   2.406e-20   -19.556   -19.619    -0.063     (0)  
   FeF3            2.062e-20   2.844e-20   -19.686   -19.546     0.140     (0)  
   SiF6-2          1.906e-26   2.886e-27   -25.720   -26.540    -0.820     46.91
Fe(2)         1.209e-03
   Fe+2            9.729e-04   1.836e-04    -3.012    -3.736    -0.724    -20.18
   FeCl+           1.877e-04   1.625e-04    -3.727    -3.789    -0.063     (0)  
   FeHCO3+         3.352e-05   2.902e-05    -4.475    -4.537    -0.063     (0)  
   FeSO4           1.402e-05   1.933e-05    -4.853    -4.714     0.140     18.97
   FeCO3           2.241e-07   3.090e-07    -6.650    -6.510     0.140     (0)  
   FeOH+           8.526e-08   5.319e-08    -7.069    -7.274    -0.205     (0)  
   Fe(HS)2         5.808e-08   8.010e-08    -7.236    -7.096     0.140     (0)  
   FeF+            2.783e-08   2.409e-08    -7.555    -7.618    -0.063     (0)  
   FeH2PO4+        1.176e-08   7.509e-09    -7.930    -8.124    -0.195     (0)  
   FeHPO4          2.542e-09   3.506e-09    -8.595    -8.455     0.140     (0)  
   FeHSO4+         1.550e-10   1.342e-10    -9.810    -9.872    -0.063     (0)  
   Fe(HS)3-        7.049e-12   6.103e-12   -11.152   -11.214    -0.063     (0)  
   Fe(OH)2         3.007e-13   4.146e-13   -12.522   -12.382     0.140     (0)  
   Fe(OH)3-        2.262e-17   1.411e-17   -16.646   -16.850    -0.205     (0)  
Fe(3)         3.779e-13
   Fe(OH)2+        3.535e-13   2.258e-13   -12.452   -12.646    -0.195     (0)  
   Fe(OH)3         1.932e-14   2.665e-14   -13.714   -13.574     0.140     (0)  
   FeOH+2          4.916e-15   7.446e-16   -14.308   -15.128    -0.820     (0)  
   Fe(OH)4-        3.485e-17   2.226e-17   -16.458   -16.652    -0.195     (0)  
   FeF+2           1.729e-17   2.618e-18   -16.762   -17.582    -0.820     (0)  
   FeCl+2          1.609e-17   2.438e-18   -16.793   -17.613    -0.820     (0)  
   FeCl2+          1.119e-17   6.981e-18   -16.951   -17.156    -0.205     (0)  
   FeF2+           2.192e-18   1.368e-18   -17.659   -17.864    -0.205     (0)  
   Fe+3            2.028e-18   1.259e-19   -17.693   -18.900    -1.207     (0)  
   FeSO4+          1.310e-18   8.173e-19   -17.883   -18.088    -0.205     (0)  
   FeCl3           3.245e-19   4.476e-19   -18.489   -18.349     0.140     (0)  
   FeF3            2.062e-20   2.844e-20   -19.686   -19.546     0.140     (0)  
   FeH2PO4+2       1.661e-20   2.765e-21   -19.780   -20.558    -0.779     (0)  
   Fe(SO4)2-       1.223e-20   1.059e-20   -19.913   -19.975    -0.063     (0)  
   FeHPO4+         2.605e-22   1.625e-22   -21.584   -21.789    -0.205     (0)  
   FeHSO4+2        4.116e-24   2.312e-24   -23.386   -23.636    -0.251     (0)  
   Fe2(OH)2+4      1.499e-28   1.492e-29   -27.824   -28.826    -1.002     (0)  
   Fe3(OH)4+5      2.590e-38   7.040e-40   -37.587   -39.152    -1.566     (0)  
H(0)          2.222e-11
   H2              1.111e-11   1.532e-11   -10.954   -10.815     0.140     28.61
K             9.910e-04
   K+              9.862e-04   5.746e-04    -3.006    -3.241    -0.235     10.04
   KSO4-           4.400e-06   5.176e-06    -5.357    -5.286     0.071      1.87
   KHCO3           3.935e-07   4.056e-07    -6.405    -6.392     0.013     41.03
   KHPO4-          8.413e-12   5.374e-12   -11.075   -11.270    -0.195     40.78
Li            1.041e-05
   Li+             1.038e-05   6.840e-06    -4.984    -5.165    -0.181     -0.44
   LiSO4-          2.834e-08   1.768e-08    -7.548    -7.753    -0.205     (0)  
Mg            1.137e-01
   Mg+2            1.095e-01   3.547e-02    -0.960    -1.450    -0.490    -19.94
   MgSO4           2.891e-03   5.498e-03    -2.539    -2.260     0.279     -7.92
   MgHCO3+         1.129e-03   6.558e-04    -2.947    -3.183    -0.236      5.88
   MgF+            5.096e-05   3.075e-05    -4.293    -4.512    -0.219    -10.20
   Mg(SO4)2-2      4.103e-05   1.072e-05    -4.387    -4.970    -0.583     38.75
   MgCO3           1.722e-06   2.375e-06    -5.764    -5.624     0.140    -17.09
   MgOH+           1.749e-07   1.180e-07    -6.757    -6.928    -0.171     (0)  
   MgH2PO4+        1.476e-07   9.430e-08    -6.831    -7.025    -0.195     (0)  
   MgHPO4          9.144e-08   1.261e-07    -7.039    -6.899     0.140     (0)  
   MgMoO4          4.114e-09   5.673e-09    -8.386    -8.246     0.140     (0)  
   MgPO4-          4.412e-10   2.818e-10    -9.355    -9.550    -0.195     (0)  
Mn(2)         1.854e-09
   Mn+2            9.333e-10   1.761e-10    -9.030    -9.754    -0.724    -15.60
   MnCl+           7.375e-10   4.601e-10    -9.132    -9.337    -0.205     -2.74
   MnCl2           9.336e-11   1.288e-10   -10.030    -9.890     0.140     85.89
   MnHCO3+         3.977e-11   2.481e-11   -10.400   -10.605    -0.205     (0)  
   MnCl3-          3.644e-11   2.274e-11   -10.438   -10.643    -0.205     47.96
   MnSO4           1.345e-11   1.854e-11   -10.871   -10.732     0.140     22.54
   MnCO3           7.118e-13   9.816e-13   -12.148   -12.008     0.140     (0)  
   MnF+            2.563e-14   1.599e-14   -13.591   -13.796    -0.205     (0)  
   MnOH+           6.648e-15   4.147e-15   -14.177   -14.382    -0.205     (0)  
   Mn(OH)3-        3.439e-27   2.145e-27   -26.464   -26.668    -0.205     (0)  
   Mn(NO3)2        0.000e+00   0.000e+00  -169.413  -169.273     0.140     41.04
Mn(3)         6.296e-37
   Mn+3            6.296e-37   3.908e-38   -36.201   -37.408    -1.207     (0)  
Mo            6.281e-09
   MgMoO4          4.114e-09   5.673e-09    -8.386    -8.246     0.140     (0)  
   CaMoO4          1.898e-09   2.618e-09    -8.722    -8.582     0.140     (0)  
   MoO4-2          2.658e-10   1.493e-10    -9.576    -9.826    -0.251     (0)  
   HMoO4-          3.165e-12   2.740e-12   -11.500   -11.562    -0.063     (0)  
   H2MoO4          8.549e-16   1.179e-15   -15.068   -14.928     0.140     (0)  
N(-3)         5.734e-04
   NH4+            5.693e-04   2.815e-04    -3.245    -3.551    -0.306     18.66
   NH4SO4-         4.072e-06   2.127e-06    -5.390    -5.672    -0.282     25.78
   NH3             1.101e-07   1.519e-07    -6.958    -6.819     0.140     24.42
N(0)          8.565e-04
   N2              4.283e-04   5.906e-04    -3.368    -3.229     0.140     29.29
N(3)          0.000e+00
   NO2-            0.000e+00   0.000e+00   -58.861   -59.140    -0.278     26.05
N(5)          0.000e+00
   NO3-            0.000e+00   0.000e+00   -79.781   -80.060    -0.278     30.70
   Mn(NO3)2        0.000e+00   0.000e+00  -169.413  -169.273     0.140     41.04
Na            5.111e-01
   Na+             5.051e-01   3.842e-01    -0.297    -0.415    -0.119     -0.11
   NaSO4-          5.765e-03   3.703e-03    -2.239    -2.431    -0.192     15.15
   NaHCO3          2.780e-04   5.288e-04    -3.556    -3.277     0.279     31.73
   NaF             2.104e-06   2.901e-06    -5.677    -5.537     0.140      7.26
   NaHPO4-         5.625e-09   3.593e-09    -8.250    -8.445    -0.195    132.44
   NaOH            2.583e-19   3.562e-19   -18.588   -18.448     0.140     (0)  
O(0)          0.000e+00
   O2              0.000e+00   0.000e+00   -70.919   -70.779     0.140     30.40
P             6.636e-07
   CaH2PO4+        1.543e-07   9.854e-08    -6.812    -7.006    -0.195     (0)  
   MgH2PO4+        1.476e-07   9.430e-08    -6.831    -7.025    -0.195     (0)  
   H2PO4-          1.277e-07   8.160e-08    -6.894    -7.088    -0.195     35.88
   MgHPO4          9.144e-08   1.261e-07    -7.039    -6.899     0.140     (0)  
   CaHPO4          9.000e-08   1.241e-07    -7.046    -6.906     0.140     (0)  
   HPO4-2          3.167e-08   4.796e-09    -7.499    -8.319    -0.820     11.05
   FeH2PO4+        1.176e-08   7.509e-09    -7.930    -8.124    -0.195     (0)  
   NaHPO4-         5.625e-09   3.593e-09    -8.250    -8.445    -0.195    132.44
   FeHPO4          2.542e-09   3.506e-09    -8.595    -8.455     0.140     (0)  
   MgPO4-          4.412e-10   2.818e-10    -9.355    -9.550    -0.195     (0)  
   CaPO4-          4.352e-10   2.780e-10    -9.361    -9.556    -0.195     (0)  
   H3PO4           9.202e-12   1.269e-11   -11.036   -10.897     0.140     47.41
   KHPO4-          8.413e-12   5.374e-12   -11.075   -11.270    -0.195     40.78
   PO4-3           2.728e-13   2.047e-15   -12.564   -14.689    -2.125    -14.85
   FeH2PO4+2       1.661e-20   2.765e-21   -19.780   -20.558    -0.779     (0)  
   FeHPO4+         2.605e-22   1.625e-22   -21.584   -21.789    -0.205     (0)  
S(-2)         6.061e-06
   H2S             4.685e-06   6.462e-06    -5.329    -5.190     0.140     36.27
   HS-             1.260e-06   6.996e-07    -5.900    -6.155    -0.256     21.69
   Fe(HS)2         5.808e-08   8.010e-08    -7.236    -7.096     0.140     (0)  
   Fe(HS)3-        7.049e-12   6.103e-12   -11.152   -11.214    -0.063     (0)  
   (H2S)2          1.595e-12   2.200e-12   -11.797   -11.658     0.140     30.09
   S-2             5.282e-13   8.000e-14   -12.277   -13.097    -0.820     (0)  
S(6)          1.681e-02
   NaSO4-          5.765e-03   3.703e-03    -2.239    -2.431    -0.192     15.15
   SO4-2           4.445e-03   5.920e-04    -2.352    -3.228    -0.876     47.99
   CaSO4           3.603e-03   4.969e-03    -2.443    -2.304     0.140      7.50
   MgSO4           2.891e-03   5.498e-03    -2.539    -2.260     0.279     -7.92
   Mg(SO4)2-2      4.103e-05   1.072e-05    -4.387    -4.970    -0.583     38.75
   FeSO4           1.402e-05   1.933e-05    -4.853    -4.714     0.140     18.97
   KSO4-           4.400e-06   5.176e-06    -5.357    -5.286     0.071      1.87
   NH4SO4-         4.072e-06   2.127e-06    -5.390    -5.672    -0.282     25.78
   SrSO4           3.130e-07   4.316e-07    -6.505    -6.365     0.140     24.24
   HSO4-           7.023e-08   6.080e-08    -7.153    -7.216    -0.063     41.24
   CaHSO4+         3.985e-08   3.450e-08    -7.400    -7.462    -0.063     (0)  
   LiSO4-          2.834e-08   1.768e-08    -7.548    -7.753    -0.205     (0)  
   BaSO4           9.830e-10   1.356e-09    -9.007    -8.868     0.140     (0)  
   FeHSO4+         1.550e-10   1.342e-10    -9.810    -9.872    -0.063     (0)  
   AlSO4+          7.375e-11   4.450e-11   -10.132   -10.352    -0.219     (0)  
   MnSO4           1.345e-11   1.854e-11   -10.871   -10.732     0.140     22.54
   Al(SO4)2-       1.381e-12   8.331e-13   -11.860   -12.079    -0.219     (0)  
   AlHSO4+2        7.421e-18   4.168e-18   -17.130   -17.380    -0.251     (0)  
   FeSO4+          1.310e-18   8.173e-19   -17.883   -18.088    -0.205     (0)  
   Fe(SO4)2-       1.223e-20   1.059e-20   -19.913   -19.975    -0.063     (0)  
   FeHSO4+2        4.116e-24   2.312e-24   -23.386   -23.636    -0.251     (0)  
Si            1.908e-04
   H4SiO4          1.907e-04   2.630e-04    -3.720    -3.580     0.140     52.08
   H3SiO4-         6.323e-08   3.672e-08    -7.199    -7.435    -0.236     29.06
   H2SiO4-2        1.420e-14   2.364e-15   -13.848   -14.626    -0.779     (0)  
   SiF6-2          1.906e-26   2.886e-27   -25.720   -26.540    -0.820     46.91
Sr            1.617e-05
   Sr+2            1.572e-05   3.739e-06    -4.804    -5.427    -0.624    -16.08
   SrSO4           3.130e-07   4.316e-07    -6.505    -6.365     0.140     24.24
   SrHCO3+         1.415e-07   9.038e-08    -6.849    -7.044    -0.195     (0)  
   SrCO3           1.214e-10   1.675e-10    -9.916    -9.776     0.140    -14.13
   SrOH+           2.816e-13   1.756e-13   -12.550   -12.755    -0.205     (0)  

------------------------------Saturation indices-------------------------------

  Phase               SI** log IAP   log K(298 K,   1 atm)

  Al(OH)3(a)       -3.54      7.26   10.80  Al(OH)3
  Albite           -2.48    -20.48  -18.00  NaAlSi3O8
  Alunite          -4.40     -5.80   -1.40  KAl3(SO4)2(OH)6
  Anhydrite        -0.28     -4.55   -4.28  CaSO4
  Anorthite        -7.54    -27.25  -19.71  CaAl2Si2O8
  Aragonite        -0.14     -8.48   -8.34  CaCO3
  Arcanite         -7.83     -9.71   -1.88  K2SO4
  Barite           -1.72    -11.57   -9.84  BaSO4
  Ca-Montmorillonite  -2.11    -47.14  -45.03  Ca0.165Al2.33Si3.67O10(OH)2
  Calcite           0.00     -8.48   -8.48  CaCO3
  Celestite        -2.00     -8.65   -6.66  SrSO4
  CH4(g)           -5.85     -8.65   -2.80  CH4	 Pressure   0.0 atm, phi 0.998
  Chalcedony       -0.00     -3.55   -3.55  SiO2
  Chlorite(14A)   -12.09     56.29   68.38  Mg5Al2Si3O10(OH)8
  Chrysotile       -7.87     24.33   32.20  Mg3Si2O5(OH)4
  CO2(g)           -0.94     -2.41   -1.47  CO2	 Pressure   0.1 atm, phi 0.996
  Dolomite          0.00    -17.08  -17.08  CaMg(CO3)2
  Epsomite         -3.04     -4.78   -1.74  MgSO4:7H2O
  Fe(OH)3(a)       -5.91     -1.01    4.89  Fe(OH)3
  FeS(ppt)         -0.00     -3.92   -3.92  FeS
  Fluorite         -0.49    -11.09  -10.60  CaF2
  Gibbsite         -0.85      7.26    8.11  Al(OH)3
  Goethite          0.00     -1.00   -1.00  FeOOH
  Gypsum            0.00     -4.58   -4.58  CaSO4:2H2O
  H2(g)            -7.71    -10.81   -3.10  H2
  H2O(g)           -1.52     -0.01    1.50  H2O
  H2S(g)           -4.20    -12.13   -7.94  H2S
  Halite           -2.18     -0.61    1.57  NaCl
  Hausmannite     -46.83     14.20   61.03  Mn3O4
  Hematite          2.02     -1.99   -4.01  Fe2O3
  Hexahydrite      -3.20     -4.76   -1.57  MgSO4:6H2O
  Hydroxyapatite   -4.28     -7.70   -3.42  Ca5(PO4)3OH
  Illite           -3.30    -43.56  -40.27  K0.6Mg0.25Al2.3Si3.5O10(OH)2
  Jarosite-K      -21.41    -30.62   -9.21  KFe3(SO4)2(OH)6
  K-feldspar       -2.73    -23.31  -20.57  KAlSi3O8
  K-mica            1.21     13.91   12.70  KAl3Si3O10(OH)2
  Kaolinite         0.00      7.44    7.43  Al2Si2O5(OH)4
  Kieserite        -3.53     -4.69   -1.16  MgSO4:H2O
  Mackinawite       0.73     -3.92   -4.65  FeS
  Manganite       -19.34      6.00   25.34  MnOOH
  Melanterite      -4.85     -7.06   -2.21  FeSO4:7H2O
  Mirabilite       -2.96     -4.20   -1.24  Na2SO4:10H2O
  N2(g)            -0.05     -3.23   -3.18  N2	 Pressure   0.9 atm, phi 1.000
  NH3(g)           -8.61     -6.82    1.80  NH3
  O2(g)           -67.89    -70.78   -2.89  O2	 Pressure   0.0 atm, phi 0.999
  Pyrite           10.10     -8.38  -18.48  FeS2
  Pyrochroite     -13.03      2.17   15.20  Mn(OH)2
  Pyrolusite      -31.56      9.82   41.38  MnO2:H2O
  Quartz            0.43     -3.55   -3.98  SiO2
  Rhodochrosite    -5.78    -16.91  -11.13  MnCO3
  Sepiolite        -5.49     10.27   15.76  Mg2Si3O7.5OH:3H2O
  Sepiolite(d)     -8.39     10.27   18.66  Mg2Si3O7.5OH:3H2O
  Siderite          0.00    -10.89  -10.89  FeCO3
  SiO2(a)          -0.84     -3.55   -2.71  SiO2
  Strontianite     -3.31    -12.58   -9.27  SrCO3
  Sulfur           -2.41      2.47    4.88  S
  Sylvite          -4.33     -3.43    0.90  KCl
  Talc             -4.15     17.24   21.40  Mg3Si4O10(OH)2
  Thenardite       -3.76     -4.06   -0.30  Na2SO4
  Vivianite        -4.70    -40.70  -36.00  Fe3(PO4)2:8H2O
  Witherite        -6.93    -15.49   -8.56  BaCO3

**For a gas, SI = log10(fugacity). Fugacity = pressure * phi / 1 atm.
  For ideal gases, phi = 1.

Reaction step 2.

Using solution 1.	Seawater
Using exchange 1.	
Using surface 1.	
Using pure phase assemblage 1.	Complete phase assemblage
Using gas phase 1.	
Using temperature 1.	
Using reaction 1.	Reaction test

Reaction 1.	Reaction test

	  1.000e+00 moles of the following reaction have been added:

	                 Relative
	Reactant            moles

	HCl                  1.00000

	                 Relative
	Element             moles
	Cl                   1.00000
	H                    1.00000

-----------------------------------Gas phase-----------------------------------

Total pressure:  1.00      atmospheres          (Peng-Robinson calculation)
    Gas volume:   1.02e+00 liters
  Molar volume:   2.53e+01 liters/mole
   P * Vm / RT:  0.99884  (Compressibility Factor Z) 

                                                        Moles in gas
                                            ----------------------------------
Component         log P           P    phi     Initial       Final       Delta

CH4(g)            -5.50   3.188e-06  0.998   4.089e-08   1.290e-07   8.814e-08
CO2(g)            -0.61   2.436e-01  0.996   1.292e-05   9.863e-03   9.850e-03
N2(g)             -0.12   7.564e-01  1.000   3.190e-02   3.062e-02  -1.279e-03
O2(g)            -65.32   4.840e-66  0.999   8.179e-03   0.000e+00  -8.179e-03

-------------------------------Phase assemblage--------------------------------

                                                      Moles in assemblage
Phase               SI  log IAP  log K(T, P)   Initial       Final       Delta

Anhydrite        -0.16    -4.55     -4.39    1.000e+00           0  -1.000e+00
Aragonite        -0.16    -8.56     -8.41    2.500e+00           0  -2.500e+00
Calcite           0.00    -8.56     -8.56    1.000e+00   3.691e+00   2.691e+00
Chalcedony        0.00    -3.44     -3.44    2.100e+00   9.987e-02  -2.000e+00
Dolomite         -0.00   -17.28    -17.28    1.000e+00   6.243e-01  -3.757e-01
FeS(ppt)         -0.00    -3.92     -3.92    1.000e+00   9.347e-01  -6.532e-02
Gibbsite         -0.84     6.73      7.57    2.000e+00           0  -2.000e+00
Goethite         -0.00    -1.34     -1.34    1.000e+00   5.189e-01  -4.811e-01
Gypsum            0.00    -4.59     -4.59    1.000e+00   2.081e+00   1.081e+00
Kaolinite        -0.00     6.60      6.60    5.000e+00   6.000e+00   1.000e+00
Siderite          0.00   -10.95    -10.95    1.000e+00   1.541e+00   5.414e-01
Sulfur           -2.25     2.40      4.66    0.000e+00           0   0.000e+00

------------------------------Surface composition------------------------------

Diffuse Double Layer Surface-Complexation Model

Surf          
	  4.579e-04  Surface charge, eq
	  1.250e-01  sigma, C/m²
	  3.652e-02  psi, V
	 -1.375e+00  -F*psi/RT
	  2.527e-01  exp(-F*psi/RT)
	  1.071e+03  specific area, m²/g
	  3.534e+02  m² for   3.300e-01 g


Surf          
	  1.000e-03  moles
	                                   Mole                     Log
	Species               Moles    Fraction    Molality    Molality

	SurfOH2+          5.146e-04       0.515   5.186e-04      -3.285
	SurfOH            4.288e-04       0.429   4.322e-04      -3.364
	SurfO-            5.663e-05       0.057   5.707e-05      -4.244
	SurfMoO4-         2.522e-10       0.000   2.542e-10      -9.595
	SurfOHMoO4-2      1.005e-10       0.000   1.013e-10      -9.994

-----------------------------Exchange composition------------------------------

X                3.000e+00 mol

	                               Equiv-    Equivalent      Log 
	Species             Moles      alents      Fraction     Gamma

	NaX               8.820e-01   8.820e-01   2.940e-01    -0.084
	CaX2              7.905e-01   1.581e+00   5.270e-01    -0.543
	MgX2              2.606e-01   5.212e-01   1.737e-01    -0.411
	KX                9.250e-03   9.250e-03   3.083e-03    -0.250
	FeX2              2.223e-03   4.446e-03   1.482e-03    -0.777
	NH4X              1.865e-03   1.865e-03   6.216e-04    -0.000
	SrX2              7.262e-05   1.452e-04   4.841e-05    -0.603
	LiX               1.500e-05   1.500e-05   4.999e-06    -0.194
	BaX2              1.135e-07   2.269e-07   7.564e-08    -0.713
	AlOHX2            1.792e-09   3.584e-09   1.195e-09    -0.018
	MnX2              1.276e-09   2.552e-09   8.505e-10    -0.777
	AlX3              4.631e-10   1.389e-09   4.631e-10    -1.275

-----------------------------Solution composition------------------------------

	Elements           Molality       Moles

	Al                9.443e-08   9.370e-08
	B                 2.363e-03   2.344e-03
	Ba                3.777e-08   3.748e-08
	Br                8.798e-04   8.730e-04
	C                 1.150e-02   1.142e-02
	Ca                3.263e-01   3.238e-01
	Cl                1.578e+00   1.566e+00
	F                 7.643e-05   7.583e-05
	Fe                2.786e-03   2.765e-03
	K                 1.339e-03   1.329e-03
	Li                1.213e-05   1.204e-05
	Mg                1.714e-01   1.701e-01
	Mn                2.517e-09   2.497e-09
	Mo                6.135e-09   6.088e-09
	N                 1.283e-03   1.273e-03
	Na                6.082e-01   6.034e-01
	P                 6.599e-07   6.548e-07
	S                 1.321e-02   1.311e-02
	Si                2.051e-04   2.035e-04
	Sr                2.386e-05   2.367e-05

----------------------------Description of solution----------------------------

                                       pH  =   5.623      Charge balance
                                       pe  =  -1.963      Adjusted to redox equilibrium
      Specific Conductance (µS/cm,  35°C)  = 134423
                          Density (g/cm³)  =   1.05833
                               Volume (L)  =   1.02149
                        Viscosity (mPa s)  =   0.90513
                        Activity of water  =   0.954
                 Ionic strength (mol/kgw)  =   2.083e+00
                       Mass of water (kg)  =   9.922e-01
                 Total alkalinity (eq/kg)  =   6.823e-03
                       Total CO2 (mol/kg)  =   1.150e-02
                         Temperature (°C)  =  35.00
                  Electrical balance (eq)  =  -8.901e-04
 Percent error, 100*(Cat-|An|)/(Cat+|An|)  =  -0.03
                               Iterations  =  17
                                  Total H  = 1.101681e+02
                                  Total O  = 5.516510e+01

----------------------------Distribution of species----------------------------

                                               Log       Log       Log    mole V
   Species          Molality    Activity  Molality  Activity     Gamma   cm³/mol

   H+              3.298e-06   2.380e-06    -5.482    -5.623    -0.142      0.00
   OH-             1.601e-08   8.383e-09    -7.796    -8.077    -0.281     -0.11
   H2O             5.551e+01   9.541e-01     1.744    -0.020     0.000     18.12
Al            9.443e-08
   AlF+2           4.226e-08   6.124e-09    -7.374    -8.213    -0.839     (0)  
   AlF2+           3.656e-08   2.256e-08    -7.437    -7.647    -0.210     (0)  
   Al(OH)2+        7.213e-09   4.450e-09    -8.142    -8.352    -0.210     (0)  
   AlOH+2          4.297e-09   6.226e-10    -8.367    -9.206    -0.839    -26.60
   Al+3            1.559e-09   8.268e-11    -8.807   -10.083    -1.275    -39.80
   AlF3            1.241e-09   2.004e-09    -8.906    -8.698     0.208     (0)  
   Al(OH)4-        8.042e-10   4.646e-10    -9.095    -9.333    -0.238     (0)  
   Al(OH)3         3.232e-10   5.221e-10    -9.490    -9.282     0.208     (0)  
   AlSO4+          1.582e-10   9.137e-11    -9.801   -10.039    -0.238     (0)  
   AlF4-           9.676e-12   5.589e-12   -11.014   -11.253    -0.238     (0)  
   Al(SO4)2-       1.613e-12   9.318e-13   -11.792   -12.031    -0.238     (0)  
   AlHSO4+2        1.813e-17   2.134e-17   -16.742   -16.671     0.071     (0)  
B             2.363e-03
   H3BO3           2.362e-03   3.815e-03    -2.627    -2.419     0.208     39.90
   H2BO3-          1.057e-06   1.101e-06    -5.976    -5.958     0.018     (0)  
   BF(OH)3-        1.128e-08   1.175e-08    -7.948    -7.930     0.018     (0)  
   BF2(OH)2-       2.080e-11   2.166e-11   -10.682   -10.664     0.018     (0)  
   BF3OH-          3.331e-16   3.469e-16   -15.477   -15.460     0.018     (0)  
   BF4-            2.336e-20   2.433e-20   -19.632   -19.614     0.018     (0)  
Ba            3.777e-08
   Ba+2            3.697e-08   7.162e-09    -7.432    -8.145    -0.713     -9.06
   BaSO4           6.851e-10   1.107e-09    -9.164    -8.956     0.208     (0)  
   BaHCO3+         1.139e-10   1.187e-10    -9.943    -9.926     0.018     (0)  
   BaCO3           8.306e-14   1.342e-13   -13.081   -12.872     0.208    -10.62
   BaOH+           1.620e-16   9.729e-17   -15.790   -16.012    -0.222     (0)  
Br            8.798e-04
   Br-             8.798e-04   4.325e-04    -3.056    -3.364    -0.308     26.09
C(-4)         2.591e-09
   CH4             2.591e-09   4.186e-09    -8.586    -8.378     0.208     36.25
C(4)          1.150e-02
   CO2             4.685e-03   6.430e-03    -2.329    -2.192     0.137     34.92
   CaHCO3+         2.617e-03   1.673e-03    -2.582    -2.776    -0.194     10.37
   HCO3-           2.045e-03   1.262e-03    -2.689    -2.899    -0.210     28.43
   MgHCO3+         1.828e-03   1.009e-03    -2.738    -2.996    -0.258      6.18
   NaHCO3          2.760e-04   7.201e-04    -3.559    -3.143     0.417     31.62
   FeHCO3+         4.593e-05   4.784e-05    -4.338    -4.320     0.018     (0)  
   CaCO3           3.573e-06   5.772e-06    -5.447    -5.239     0.208    -14.57
   MgCO3           1.323e-06   2.137e-06    -5.878    -5.670     0.208    -17.09
   (CO2)2          6.416e-07   1.036e-06    -6.193    -5.984     0.208     69.83
   KHCO3           4.741e-07   4.960e-07    -6.324    -6.305     0.020     41.13
   SrHCO3+         2.568e-07   1.584e-07    -6.590    -6.800    -0.210     (0)  
   CO3-2           2.047e-07   2.967e-08    -6.689    -7.528    -0.839      3.21
   FeCO3           1.670e-07   2.698e-07    -6.777    -6.569     0.208     (0)  
   BaHCO3+         1.139e-10   1.187e-10    -9.943    -9.926     0.018     (0)  
   SrCO3           9.180e-11   1.483e-10   -10.037    -9.829     0.208    -14.09
   MnHCO3+         3.390e-11   2.036e-11   -10.470   -10.691    -0.222     (0)  
   MnCO3           2.640e-13   4.265e-13   -12.578   -12.370     0.208     (0)  
   BaCO3           8.306e-14   1.342e-13   -13.081   -12.872     0.208    -10.62
Ca            3.263e-01
   Ca+2            3.203e-01   9.184e-02    -0.494    -1.037    -0.543    -15.63
   CaSO4           3.352e-03   5.414e-03    -2.475    -2.266     0.208      7.83
   CaHCO3+         2.617e-03   1.673e-03    -2.582    -2.776    -0.194     10.37
   CaCO3           3.573e-06   5.772e-06    -5.447    -5.239     0.208    -14.57
   CaH2PO4+        2.341e-07   1.444e-07    -6.631    -6.840    -0.210     (0)  
   CaHSO4+         9.486e-08   9.880e-08    -7.023    -7.005     0.018     (0)  
   CaHPO4          5.249e-08   8.479e-08    -7.280    -7.072     0.208     (0)  
   CaOH+           5.866e-09   6.110e-09    -8.232    -8.214     0.018     (0)  
   CaMoO4          1.995e-09   3.223e-09    -8.700    -8.492     0.208     (0)  
   CaPO4-          1.640e-10   1.012e-10    -9.785    -9.995    -0.210     (0)  
Cl            1.578e+00
   Cl-             1.578e+00   9.096e-01     0.198    -0.041    -0.239     19.55
   FeCl+           4.570e-04   4.760e-04    -3.340    -3.322     0.018     (0)  
   HCl             9.105e-08   7.009e-07    -7.041    -6.154     0.886     (0)  
   MnCl+           1.117e-09   6.707e-10    -8.952    -9.174    -0.222     -0.69
   MnCl2           1.649e-10   2.663e-10    -9.783    -9.575     0.208     75.17
   MnCl3-          1.111e-10   6.672e-11    -9.954   -10.176    -0.222     50.39
   FeCl+2          1.925e-16   2.501e-17   -15.716   -16.602    -0.886     (0)  
   FeCl2+          1.245e-16   7.478e-17   -15.905   -16.126    -0.222     (0)  
   FeCl3           4.211e-18   6.802e-18   -17.376   -17.167     0.208     (0)  
F             7.643e-05
   MgF+            6.167e-05   3.562e-05    -4.210    -4.448    -0.238    -10.19
   F-              1.334e-05   6.989e-06    -4.875    -5.156    -0.281      0.16
   NaF             1.239e-06   2.002e-06    -5.907    -5.699     0.208      7.59
   AlF+2           4.226e-08   6.124e-09    -7.374    -8.213    -0.839     (0)  
   AlF2+           3.656e-08   2.256e-08    -7.437    -7.647    -0.210     (0)  
   FeF+            2.544e-08   2.650e-08    -7.595    -7.577     0.018     (0)  
   HF              1.856e-08   2.997e-08    -7.732    -7.523     0.208     12.90
   BF(OH)3-        1.128e-08   1.175e-08    -7.948    -7.930     0.018     (0)  
   AlF3            1.241e-09   2.004e-09    -8.906    -8.698     0.208     (0)  
   BF2(OH)2-       2.080e-11   2.166e-11   -10.682   -10.664     0.018     (0)  
   AlF4-           9.676e-12   5.589e-12   -11.014   -11.253    -0.238     (0)  
   HF2-            8.239e-13   8.582e-13   -12.084   -12.066     0.018     23.87
   MnF+            1.457e-14   8.751e-15   -13.836   -14.058    -0.222     (0)  
   BF3OH-          3.331e-16   3.469e-16   -15.477   -15.460     0.018     (0)  
   FeF+2           6.620e-17   8.604e-18   -16.179   -17.065    -0.886     (0)  
   FeF2+           4.473e-18   2.686e-18   -17.349   -17.571    -0.222     (0)  
   BF4-            2.336e-20   2.433e-20   -19.632   -19.614     0.018     (0)  
   FeF3            1.903e-20   3.074e-20   -19.721   -19.512     0.208     (0)  
   SiF6-2          7.144e-27   9.284e-28   -26.146   -27.032    -0.886     48.84
Fe(2)         2.786e-03
   Fe+2            2.267e-03   3.791e-04    -2.644    -3.421    -0.777    -19.24
   FeCl+           4.570e-04   4.760e-04    -3.340    -3.322     0.018     (0)  
   FeHCO3+         4.593e-05   4.784e-05    -4.338    -4.320     0.018     (0)  
   FeSO4           1.536e-05   2.481e-05    -4.814    -4.605     0.208      9.82
   FeCO3           1.670e-07   2.698e-07    -6.777    -6.569     0.208     (0)  
   FeOH+           1.649e-07   9.903e-08    -6.783    -7.004    -0.222     (0)  
   Fe(HS)2         1.219e-07   1.969e-07    -6.914    -6.706     0.208     (0)  
   FeF+            2.544e-08   2.650e-08    -7.595    -7.577     0.018     (0)  
   FeH2PO4+        1.571e-08   9.696e-09    -7.804    -8.013    -0.210     (0)  
   FeHPO4          1.313e-09   2.121e-09    -8.882    -8.673     0.208     (0)  
   FeHSO4+         3.916e-10   4.079e-10    -9.407    -9.389     0.018     (0)  
   Fe(HS)3-        1.572e-11   1.637e-11   -10.804   -10.786     0.018     (0)  
   Fe(OH)2         4.853e-13   7.840e-13   -12.314   -12.106     0.208     (0)  
   Fe(OH)3-        2.139e-17   1.284e-17   -16.670   -16.891    -0.222     (0)  
Fe(3)         1.005e-12
   Fe(OH)2+        9.519e-13   5.873e-13   -12.021   -12.231    -0.210     (0)  
   Fe(OH)3         2.863e-14   4.624e-14   -13.543   -13.335     0.208     (0)  
   FeOH+2          2.359e-14   3.065e-15   -13.627   -14.514    -0.886     (0)  
   FeCl+2          1.925e-16   2.501e-17   -15.716   -16.602    -0.886     (0)  
   FeCl2+          1.245e-16   7.478e-17   -15.905   -16.126    -0.222     (0)  
   FeF+2           6.620e-17   8.604e-18   -16.179   -17.065    -0.886     (0)  
   Fe(OH)4-        4.043e-17   2.494e-17   -16.393   -16.603    -0.210     (0)  
   Fe+3            1.263e-17   6.700e-19   -16.899   -18.174    -1.275     (0)  
   FeSO4+          4.673e-18   2.806e-18   -17.330   -17.552    -0.222     (0)  
   FeF2+           4.473e-18   2.686e-18   -17.349   -17.571    -0.222     (0)  
   FeCl3           4.211e-18   6.802e-18   -17.376   -17.167     0.208     (0)  
   FeH2PO4+2       6.350e-20   9.202e-21   -19.197   -20.036    -0.839     (0)  
   FeF3            1.903e-20   3.074e-20   -19.721   -19.512     0.208     (0)  
   Fe(SO4)2-       1.887e-20   1.965e-20   -19.724   -19.707     0.018     (0)  
   FeHPO4+         5.787e-22   3.474e-22   -21.238   -21.459    -0.222     (0)  
   FeHSO4+2        1.538e-23   1.810e-23   -22.813   -22.742     0.071     (0)  
   Fe2(OH)2+4      8.831e-29   1.695e-28   -28.054   -27.771     0.283     (0)  
   Fe3(OH)4+5      3.075e-39   8.520e-39   -38.512   -38.070     0.443     (0)  
H(0)          3.801e-11
   H2              1.901e-11   3.070e-11   -10.721   -10.513     0.208     28.60
K             1.339e-03
   K+              1.336e-03   7.519e-04    -2.874    -3.124    -0.250     10.58
   KSO4-           2.414e-06   3.705e-06    -5.617    -5.431     0.186     -5.75
   KHCO3           4.741e-07   4.960e-07    -6.324    -6.305     0.020     41.13
   KHPO4-          3.340e-12   2.061e-12   -11.476   -11.686    -0.210     41.63
Li            1.213e-05
   Li+             1.211e-05   7.747e-06    -4.917    -5.111    -0.194     -0.40
   LiSO4-          1.736e-08   1.043e-08    -7.760    -7.982    -0.222     (0)  
Mg            1.714e-01
   Mg+2            1.669e-01   6.474e-02    -0.777    -1.189    -0.411    -19.81
   MgSO4           2.587e-03   6.751e-03    -2.587    -2.171     0.417     -4.99
   MgHCO3+         1.828e-03   1.009e-03    -2.738    -2.996    -0.258      6.18
   MgF+            6.167e-05   3.562e-05    -4.210    -4.448    -0.238    -10.19
   Mg(SO4)2-2      2.253e-05   5.743e-06    -4.647    -5.241    -0.594     45.11
   MgCO3           1.323e-06   2.137e-06    -5.878    -5.670     0.208    -17.09
   MgOH+           3.440e-07   2.258e-07    -6.463    -6.646    -0.183     (0)  
   MgH2PO4+        2.102e-07   1.297e-07    -6.677    -6.887    -0.210     (0)  
   MgHPO4          5.003e-08   8.082e-08    -7.301    -7.093     0.208     (0)  
   MgMoO4          4.056e-09   6.552e-09    -8.392    -8.184     0.208     (0)  
   MgPO4-          1.559e-10   9.620e-11    -9.807   -10.017    -0.210     (0)  
Mn(2)         2.517e-09
   MnCl+           1.117e-09   6.707e-10    -8.952    -9.174    -0.222     -0.69
   Mn+2            1.082e-09   1.810e-10    -8.966    -9.742    -0.777    -15.06
   MnCl2           1.649e-10   2.663e-10    -9.783    -9.575     0.208     75.17
   MnCl3-          1.111e-10   6.672e-11    -9.954   -10.176    -0.222     50.39
   MnHCO3+         3.390e-11   2.036e-11   -10.470   -10.691    -0.222     (0)  
   MnSO4           7.388e-12   1.193e-11   -11.131   -10.923     0.208     18.68
   MnCO3           2.640e-13   4.265e-13   -12.578   -12.370     0.208     (0)  
   MnF+            1.457e-14   8.751e-15   -13.836   -14.058    -0.222     (0)  
   MnOH+           6.835e-15   4.104e-15   -14.165   -14.387    -0.222     (0)  
   Mn(OH)3-        3.078e-28   1.848e-28   -27.512   -27.733    -0.222     (0)  
   Mn(NO3)2        0.000e+00   0.000e+00  -164.637  -164.429     0.208     38.69
Mn(3)         4.717e-36
   Mn+3            4.717e-36   2.502e-37   -35.326   -36.602    -1.275     (0)  
Mo            6.135e-09
   MgMoO4          4.056e-09   6.552e-09    -8.392    -8.184     0.208     (0)  
   CaMoO4          1.995e-09   3.223e-09    -8.700    -8.492     0.208     (0)  
   MoO4-2          8.024e-11   9.445e-11   -10.096   -10.025     0.071     (0)  
   HMoO4-          3.750e-12   3.906e-12   -11.426   -11.408     0.018     (0)  
   H2MoO4          2.344e-15   3.787e-15   -14.630   -14.422     0.208     (0)  
N(-3)         7.308e-04
   NH4+            7.270e-04   3.308e-04    -3.138    -3.480    -0.342     18.88
   NH4SO4-         3.677e-06   1.647e-06    -5.435    -5.783    -0.349     33.16
   NH3             9.703e-08   1.567e-07    -7.013    -6.805     0.208     24.72
N(0)          5.520e-04
   N2              2.760e-04   4.459e-04    -3.559    -3.351     0.208     29.29
N(3)          0.000e+00
   NO2-            0.000e+00   0.000e+00   -57.102   -57.410    -0.308     26.83
N(5)          0.000e+00
   NO3-            0.000e+00   0.000e+00   -77.330   -77.639    -0.308     31.70
   Mn(NO3)2        0.000e+00   0.000e+00  -164.637  -164.429     0.208     38.69
Na            6.082e-01
   Na+             6.036e-01   4.977e-01    -0.219    -0.303    -0.084      0.48
   NaSO4-          4.320e-03   2.682e-03    -2.364    -2.571    -0.207     20.34
   NaHCO3          2.760e-04   7.201e-04    -3.559    -3.143     0.417     31.62
   NaF             1.239e-06   2.002e-06    -5.907    -5.699     0.208      7.59
   NaHPO4-         2.211e-09   1.364e-09    -8.656    -8.865    -0.210    201.54
   NaOH            2.583e-19   4.172e-19   -18.588   -18.380     0.208     (0)  
O(0)          0.000e+00
   O2              0.000e+00   0.000e+00   -68.481   -68.273     0.208     31.10
P             6.599e-07
   CaH2PO4+        2.341e-07   1.444e-07    -6.631    -6.840    -0.210     (0)  
   MgH2PO4+        2.102e-07   1.297e-07    -6.677    -6.887    -0.210     (0)  
   H2PO4-          8.271e-08   5.103e-08    -7.082    -7.292    -0.210     37.12
   CaHPO4          5.249e-08   8.479e-08    -7.280    -7.072     0.208     (0)  
   MgHPO4          5.003e-08   8.082e-08    -7.301    -7.093     0.208     (0)  
   FeH2PO4+        1.571e-08   9.696e-09    -7.804    -8.013    -0.210     (0)  
   HPO4-2          1.081e-08   1.405e-09    -7.966    -8.852    -0.886     12.15
   NaHPO4-         2.211e-09   1.364e-09    -8.656    -8.865    -0.210    201.54
   FeHPO4          1.313e-09   2.121e-09    -8.882    -8.673     0.208     (0)  
   CaPO4-          1.640e-10   1.012e-10    -9.785    -9.995    -0.210     (0)  
   MgPO4-          1.559e-10   9.620e-11    -9.807   -10.017    -0.210     (0)  
   H3PO4           1.242e-11   2.007e-11   -10.906   -10.698     0.208     47.88
   KHPO4-          3.340e-12   2.061e-12   -11.476   -11.686    -0.210     41.63
   PO4-3           6.762e-14   3.230e-16   -13.170   -15.491    -2.321    -13.42
   FeH2PO4+2       6.350e-20   9.202e-21   -19.197   -20.036    -0.839     (0)  
   FeHPO4+         5.787e-22   3.474e-22   -21.238   -21.459    -0.222     (0)  
S(-2)         9.191e-06
   H2S             7.489e-06   1.210e-05    -5.126    -4.917     0.208     38.44
   HS-             1.458e-06   7.635e-07    -5.836    -6.117    -0.281     22.41
   Fe(HS)2         1.219e-07   1.969e-07    -6.914    -6.706     0.208     (0)  
   Fe(HS)3-        1.572e-11   1.637e-11   -10.804   -10.786     0.018     (0)  
   (H2S)2          6.025e-12   9.733e-12   -11.220   -11.012     0.208     29.63
   S-2             5.784e-13   7.517e-14   -12.238   -13.124    -0.886     (0)  
S(6)          1.320e-02
   NaSO4-          4.320e-03   2.682e-03    -2.364    -2.571    -0.207     20.34
   CaSO4           3.352e-03   5.414e-03    -2.475    -2.266     0.208      7.83
   SO4-2           2.874e-03   3.083e-04    -2.542    -3.511    -0.970     55.52
   MgSO4           2.587e-03   6.751e-03    -2.587    -2.171     0.417     -4.99
   Mg(SO4)2-2      2.253e-05   5.743e-06    -4.647    -5.241    -0.594     45.11
   FeSO4           1.536e-05   2.481e-05    -4.814    -4.605     0.208      9.82
   NH4SO4-         3.677e-06   1.647e-06    -5.435    -5.783    -0.349     33.16
   KSO4-           2.414e-06   3.705e-06    -5.617    -5.431     0.186     -5.75
   SrSO4           2.431e-07   3.926e-07    -6.614    -6.406     0.208     24.56
   CaHSO4+         9.486e-08   9.880e-08    -7.023    -7.005     0.018     (0)  
   HSO4-           8.591e-08   8.948e-08    -7.066    -7.048     0.018     42.04
   LiSO4-          1.736e-08   1.043e-08    -7.760    -7.982    -0.222     (0)  
   BaSO4           6.851e-10   1.107e-09    -9.164    -8.956     0.208     (0)  
   FeHSO4+         3.916e-10   4.079e-10    -9.407    -9.389     0.018     (0)  
   AlSO4+          1.582e-10   9.137e-11    -9.801   -10.039    -0.238     (0)  
   MnSO4           7.388e-12   1.193e-11   -11.131   -10.923     0.208     18.68
   Al(SO4)2-       1.613e-12   9.318e-13   -11.792   -12.031    -0.238     (0)  
   AlHSO4+2        1.813e-17   2.134e-17   -16.742   -16.671     0.071     (0)  
   FeSO4+          4.673e-18   2.806e-18   -17.330   -17.552    -0.222     (0)  
   Fe(SO4)2-       1.887e-20   1.965e-20   -19.724   -19.707     0.018     (0)  
[...]
   BaOH+           1.620e-16   9.729e-17   -15.790   -16.012    -0.222     (0)  
Br            8.798e-04
   Br-             8.798e-04   4.325e-04    -3.056    -3.364    -0.308     26.09
C(-4)         2.591e-09
   CH4             2.591e-09   4.186e-09    -8.586    -8.378     0.208     36.25
C(4)          1.150e-02
   CO2             4.685e-03   6.430e-03    -2.329    -2.192     0.137     34.92
   CaHCO3+         2.617e-03   1.673e-03    -2.582    -2.776    -0.194     10.37
   HCO3-           2.045e-03   1.262e-03    -2.689    -2.899    -0.210     28.43
   MgHCO3+         1.828e-03   1.009e-03    -2.738    -2.996    -0.258      6.18
   NaHCO3          2.760e-04   7.201e-04    -3.559    -3.143     0.417     31.62
   FeHCO3+         4.593e-05   4.784e-05    -4.338    -4.320     0.018     (0)  
   CaCO3           3.573e-06   5.772e-06    -5.447    -5.239     0.208    -14.57
   MgCO3           1.323e-06   2.137e-06    -5.878    -5.670     0.208    -17.09
   (CO2)2          6.416e-07   1.036e-06    -6.193    -5.984     0.208     69.83
   KHCO3           4.741e-07   4.960e-07    -6.324    -6.305     0.020     41.13
   SrHCO3+         2.568e-07   1.584e-07    -6.590    -6.800    -0.210     (0)  
   CO3-2           2.047e-07   2.967e-08    -6.689    -7.528    -0.839      3.21
   FeCO3           1.670e-07   2.698e-07    -6.777    -6.569     0.208     (0)  
   BaHCO3+         1.139e-10   1.187e-10    -9.943    -9.926     0.018     (0)  
   SrCO3           9.180e-11   1.483e-10   -10.037    -9.829     0.208    -14.09
   MnHCO3+         3.390e-11   2.036e-11   -10.470   -10.691    -0.222     (0)  
   MnCO3           2.640e-13   4.265e-13   -12.578   -12.370     0.208     (0)  
   BaCO3           8.306e-14   1.342e-13   -13.081   -12.872     0.208    -10.62
Ca            3.263e-01
   Ca+2            3.203e-01   9.184e-02    -0.494    -1.037    -0.543    -15.63
   CaSO4           3.352e-03   5.414e-03    -2.475    -2.266     0.208      7.83
   CaHCO3+         2.617e-03   1.673e-03    -2.582    -2.776    -0.194     10.37
   CaCO3           3.573e-06   5.772e-06    -5.447    -5.239     0.208    -14.57
   CaH2PO4+        2.341e-07   1.444e-07    -6.631    -6.840    -0.210     (0)  
   CaHSO4+         9.486e-08   9.880e-08    -7.023    -7.005     0.018     (0)  
   CaHPO4          5.249e-08   8.479e-08    -7.280    -7.072     0.208     (0)  
   CaOH+           5.866e-09   6.110e-09    -8.232    -8.214     0.018     (0)  
   CaMoO4          1.995e-09   3.223e-09    -8.700    -8.492     0.208     (0)  
   CaPO4-          1.640e-10   1.012e-10    -9.785    -9.995    -0.210     (0)  
Cl            1.578e+00
   Cl-             1.578e+00   9.096e-01     0.198    -0.041    -0.239     19.55
   FeCl+           4.570e-04   4.760e-04    -3.340    -3.322     0.018     (0)  
   HCl             9.105e-08   7.009e-07    -7.041    -6.154     0.886     (0)  
   MnCl+           1.117e-09   6.707e-10    -8.952    -9.174    -0.222     -0.69
   MnCl2           1.649e-10   2.663e-10    -9.783    -9.575     0.208     75.17
   MnCl3-          1.111e-10   6.672e-11    -9.954   -10.176    -0.222     50.39
   FeCl+2          1.925e-16   2.501e-17   -15.716   -16.602    -0.886     (0)  
   FeCl2+          1.245e-16   7.478e-17   -15.905   -16.126    -0.222     (0)  
   FeCl3           4.211e-18   6.802e-18   -17.376   -17.167     0.208     (0)  
F             7.643e-05
   MgF+            6.167e-05   3.562e-05    -4.210    -4.448    -0.238    -10.19
   F-              1.334e-05   6.989e-06    -4.875    -5.156    -0.281      0.16
   NaF             1.239e-06   2.002e-06    -5.907    -5.699     0.208      7.59
   AlF+2           4.226e-08   6.124e-09    -7.374    -8.213    -0.839     (0)  
   AlF2+           3.656e-08   2.256e-08    -7.437    -7.647    -0.210     (0)  
   FeF+            2.544e-08   2.650e-08    -7.595    -7.577     0.018     (0)  
   HF              1.856e-08   2.997e-08    -7.732    -7.523     0.208     12.90
   BF(OH)3-        1.128e-08   1.175e-08    -7.948    -7.930     0.018     (0)  
   AlF3            1.241e-09   2.004e-09    -8.906    -8.698     0.208     (0)  
   BF2(OH)2-       2.080e-11   2.166e-11   -10.682   -10.664     0.018     (0)  
   AlF4-           9.676e-12   5.589e-12   -11.014   -11.253    -0.238     (0)  
   HF2-            8.239e-13   8.582e-13   -12.084   -12.066     0.018     23.87
   MnF+            1.457e-14   8.751e-15   -13.836   -14.058    -0.222     (0)  
   BF3OH-          3.331e-16   3.469e-16   -15.477   -15.460     0.018     (0)  
   FeF+2           6.620e-17   8.604e-18   -16.179   -17.065    -0.886     (0)  
   FeF2+           4.473e-18   2.686e-18   -17.349   -17.571    -0.222     (0)  
   BF4-            2.336e-20   2.433e-20   -19.632   -19.614     0.018     (0)  
   FeF3            1.903e-20   3.074e-20   -19.721   -19.512     0.208     (0)  
   SiF6-2          7.144e-27   9.284e-28   -26.146   -27.032    -0.886     48.84
Fe(2)         2.786e-03
   Fe+2            2.267e-03   3.791e-04    -2.644    -3.421    -0.777    -19.24
   FeCl+           4.570e-04   4.760e-04    -3.340    -3.322     0.018     (0)  
   FeHCO3+         4.593e-05   4.784e-05    -4.338    -4.320     0.018     (0)  
   FeSO4           1.536e-05   2.481e-05    -4.814    -4.605     0.208      9.82
   FeCO3           1.670e-07   2.698e-07    -6.777    -6.569     0.208     (0)  
   FeOH+           1.649e-07   9.903e-08    -6.783    -7.004    -0.222     (0)  
   Fe(HS)2         1.219e-07   1.969e-07    -6.914    -6.706     0.208     (0)  
   FeF+            2.544e-08   2.650e-08    -7.595    -7.577     0.018     (0)  
   FeH2PO4+        1.571e-08   9.696e-09    -7.804    -8.013    -0.210     (0)  
   FeHPO4          1.313e-09   2.121e-09    -8.882    -8.673     0.208     (0)  
   FeHSO4+         3.916e-10   4.079e-10    -9.407    -9.389     0.018     (0)  
   Fe(HS)3-        1.572e-11   1.637e-11   -10.804   -10.786     0.018     (0)  
   Fe(OH)2         4.853e-13   7.840e-13   -12.314   -12.106     0.208     (0)  
   Fe(OH)3-        2.139e-17   1.284e-17   -16.670   -16.891    -0.222     (0)  
Fe(3)         1.005e-12
   Fe(OH)2+        9.519e-13   5.873e-13   -12.021   -12.231    -0.210     (0)  
   Fe(OH)3         2.863e-14   4.624e-14   -13.543   -13.335     0.208     (0)  
   FeOH+2          2.359e-14   3.065e-15   -13.627   -14.514    -0.886     (0)  
   FeCl+2          1.925e-16   2.501e-17   -15.716   -16.602    -0.886     (0)  
   FeCl2+          1.245e-16   7.478e-17   -15.905   -16.126    -0.222     (0)  
   FeF+2           6.620e-17   8.604e-18   -16.179   -17.065    -0.886     (0)  
   Fe(OH)4-        4.043e-17   2.494e-17   -16.393   -16.603    -0.210     (0)  
   Fe+3            1.263e-17   6.700e-19   -16.899   -18.174    -1.275     (0)  
   FeSO4+          4.673e-18   2.806e-18   -17.330   -17.552    -0.222     (0)  
   FeF2+           4.473e-18   2.686e-18   -17.349   -17.571    -0.222     (0)  
   FeCl3           4.211e-18   6.802e-18   -17.376   -17.167     0.208     (0)  
   FeH2PO4+2       6.350e-20   9.202e-21   -19.197   -20.036    -0.839     (0)  
   FeF3            1.903e-20   3.074e-20   -19.721   -19.512     0.208     (0)  
   Fe(SO4)2-       1.887e-20   1.965e-20   -19.724   -19.707     0.018     (0)  
   FeHPO4+         5.787e-22   3.474e-22   -21.238   -21.459    -0.222     (0)  
   FeHSO4+2        1.538e-23   1.810e-23   -22.813   -22.742     0.071     (0)  
   Fe2(OH)2+4      8.831e-29   1.695e-28   -28.054   -27.771     0.283     (0)  
   Fe3(OH)4+5      3.075e-39   8.520e-39   -38.512   -38.070     0.443     (0)  
H(0)          3.801e-11
   H2              1.901e-11   3.070e-11   -10.721   -10.513     0.208     28.60
K             1.339e-03
   K+              1.336e-03   7.519e-04    -2.874    -3.124    -0.250     10.58
   KSO4-           2.414e-06   3.705e-06    -5.617    -5.431     0.186     -5.75
   KHCO3           4.741e-07   4.960e-07    -6.324    -6.305     0.020     41.13
   KHPO4-          3.340e-12   2.061e-12   -11.476   -11.686    -0.210     41.63
Li            1.213e-05
   Li+             1.211e-05   7.747e-06    -4.917    -5.111    -0.194     -0.40
   LiSO4-          1.736e-08   1.043e-08    -7.760    -7.982    -0.222     (0)  
Mg            1.714e-01
   Mg+2            1.669e-01   6.474e-02    -0.777    -1.189    -0.411    -19.81
   MgSO4           2.587e-03   6.751e-03    -2.587    -2.171     0.417     -4.99
   MgHCO3+         1.828e-03   1.009e-03    -2.738    -2.996    -0.258      6.18
   MgF+            6.167e-05   3.562e-05    -4.210    -4.448    -0.238    -10.19
   Mg(SO4)2-2      2.253e-05   5.743e-06    -4.647    -5.241    -0.594     45.11
   MgCO3           1.323e-06   2.137e-06    -5.878    -5.670     0.208    -17.09
   MgOH+           3.440e-07   2.258e-07    -6.463    -6.646    -0.183     (0)  
   MgH2PO4+        2.102e-07   1.297e-07    -6.677    -6.887    -0.210     (0)  
   MgHPO4          5.003e-08   8.082e-08    -7.301    -7.093     0.208     (0)  
   MgMoO4          4.056e-09   6.552e-09    -8.392    -8.184     0.208     (0)  
   MgPO4-          1.559e-10   9.620e-11    -9.807   -10.017    -0.210     (0)  
Mn(2)         2.517e-09
   MnCl+           1.117e-09   6.707e-10    -8.952    -9.174    -0.222     -0.69
   Mn+2            1.082e-09   1.810e-10    -8.966    -9.742    -0.777    -15.06
   MnCl2           1.649e-10   2.663e-10    -9.783    -9.575     0.208     75.17
   MnCl3-          1.111e-10   6.672e-11    -9.954   -10.176    -0.222     50.39
   MnHCO3+         3.390e-11   2.036e-11   -10.470   -10.691    -0.222     (0)  
   MnSO4           7.388e-12   1.193e-11   -11.131   -10.923     0.208     18.68
   MnCO3           2.640e-13   4.265e-13   -12.578   -12.370     0.208     (0)  
   MnF+            1.457e-14   8.751e-15   -13.836   -14.058    -0.222     (0)  
   MnOH+           6.835e-15   4.104e-15   -14.165   -14.387    -0.222     (0)  
   Mn(OH)3-        3.078e-28   1.848e-28   -27.512   -27.733    -0.222     (0)  
   Mn(NO3)2        0.000e+00   0.000e+00  -164.637  -164.429     0.208     38.69
Mn(3)         4.717e-36
   Mn+3            4.717e-36   2.502e-37   -35.326   -36.602    -1.275     (0)  
Mo            6.135e-09
   MgMoO4          4.056e-09   6.552e-09    -8.392    -8.184     0.208     (0)  
   CaMoO4          1.995e-09   3.223e-09    -8.700    -8.492     0.208     (0)  
   MoO4-2          8.024e-11   9.445e-11   -10.096   -10.025     0.071     (0)  
   HMoO4-          3.750e-12   3.906e-12   -11.426   -11.408     0.018     (0)  
   H2MoO4          2.344e-15   3.787e-15   -14.630   -14.422     0.208     (0)  
N(-3)         7.308e-04
   NH4+            7.270e-04   3.308e-04    -3.138    -3.480    -0.342     18.88
   NH4SO4-         3.677e-06   1.647e-06    -5.435    -5.783    -0.349     33.16
   NH3             9.703e-08   1.567e-07    -7.013    -6.805     0.208     24.72
N(0)          5.520e-04
   N2              2.760e-04   4.459e-04    -3.559    -3.351     0.208     29.29
N(3)          0.000e+00
   NO2-            0.000e+00   0.000e+00   -57.102   -57.410    -0.308     26.83
N(5)          0.000e+00
   NO3-            0.000e+00   0.000e+00   -77.330   -77.639    -0.308     31.70
   Mn(NO3)2        0.000e+00   0.000e+00  -164.637  -164.429     0.208     38.69
Na            6.082e-01
   Na+             6.036e-01   4.977e-01    -0.219    -0.303    -0.084      0.48
   NaSO4-          4.320e-03   2.682e-03    -2.364    -2.571    -0.207     20.34
   NaHCO3          2.760e-04   7.201e-04    -3.559    -3.143     0.417     31.62
   NaF             1.239e-06   2.002e-06    -5.907    -5.699     0.208      7.59
   NaHPO4-         2.211e-09   1.364e-09    -8.656    -8.865    -0.210    201.54
   NaOH            2.583e-19   4.172e-19   -18.588   -18.380     0.208     (0)  
O(0)          0.000e+00
   O2              0.000e+00   0.000e+00   -68.481   -68.273     0.208     31.10
P             6.599e-07
   CaH2PO4+        2.341e-07   1.444e-07    -6.631    -6.840    -0.210     (0)  
   MgH2PO4+        2.102e-07   1.297e-07    -6.677    -6.887    -0.210     (0)  
   H2PO4-          8.271e-08   5.103e-08    -7.082    -7.292    -0.210     37.12
   CaHPO4          5.249e-08   8.479e-08    -7.280    -7.072     0.208     (0)  
   MgHPO4          5.003e-08   8.082e-08    -7.301    -7.093     0.208     (0)  
   FeH2PO4+        1.571e-08   9.696e-09    -7.804    -8.013    -0.210     (0)  
   HPO4-2          1.081e-08   1.405e-09    -7.966    -8.852    -0.886     12.15
   NaHPO4-         2.211e-09   1.364e-09    -8.656    -8.865    -0.210    201.54
   FeHPO4          1.313e-09   2.121e-09    -8.882    -8.673     0.208     (0)  
   CaPO4-          1.640e-10   1.012e-10    -9.785    -9.995    -0.210     (0)  
   MgPO4-          1.559e-10   9.620e-11    -9.807   -10.017    -0.210     (0)  
   H3PO4           1.242e-11   2.007e-11   -10.906   -10.698     0.208     47.88
   KHPO4-          3.340e-12   2.061e-12   -11.476   -11.686    -0.210     41.63
   PO4-3           6.762e-14   3.230e-16   -13.170   -15.491    -2.321    -13.42
   FeH2PO4+2       6.350e-20   9.202e-21   -19.197   -20.036    -0.839     (0)  
   FeHPO4+         5.787e-22   3.474e-22   -21.238   -21.459    -0.222     (0)  
S(-2)         9.191e-06
   H2S             7.489e-06   1.210e-05    -5.126    -4.917     0.208     38.44
   HS-             1.458e-06   7.635e-07    -5.836    -6.117    -0.281     22.41
   Fe(HS)2         1.219e-07   1.969e-07    -6.914    -6.706     0.208     (0)  
   Fe(HS)3-        1.572e-11   1.637e-11   -10.804   -10.786     0.018     (0)  
   (H2S)2          6.025e-12   9.733e-12   -11.220   -11.012     0.208     29.63
   S-2             5.784e-13   7.517e-14   -12.238   -13.124    -0.886     (0)  
S(6)          1.320e-02
   NaSO4-          4.320e-03   2.682e-03    -2.364    -2.571    -0.207     20.34
   CaSO4           3.352e-03   5.414e-03    -2.475    -2.266     0.208      7.83
   SO4-2           2.874e-03   3.083e-04    -2.542    -3.511    -0.970     55.52
   MgSO4           2.587e-03   6.751e-03    -2.587    -2.171     0.417     -4.99
   Mg(SO4)2-2      2.253e-05   5.743e-06    -4.647    -5.241    -0.594     45.11
   FeSO4           1.536e-05   2.481e-05    -4.814    -4.605     0.208      9.82
   NH4SO4-         3.677e-06   1.647e-06    -5.435    -5.783    -0.349     33.16
   KSO4-           2.414e-06   3.705e-06    -5.617    -5.431     0.186     -5.75
   SrSO4           2.431e-07   3.926e-07    -6.614    -6.406     0.208     24.56
   CaHSO4+         9.486e-08   9.880e-08    -7.023    -7.005     0.018     (0)  
   HSO4-           8.591e-08   8.948e-08    -7.066    -7.048     0.018     42.04
   LiSO4-          1.736e-08   1.043e-08    -7.760    -7.982    -0.222     (0)  
   BaSO4           6.851e-10   1.107e-09    -9.164    -8.956     0.208     (0)  
   FeHSO4+         3.916e-10   4.079e-10    -9.407    -9.389     0.018     (0)  
   AlSO4+          1.582e-10   9.137e-11    -9.801   -10.039    -0.238     (0)  
   MnSO4           7.388e-12   1.193e-11   -11.131   -10.923     0.208     18.68
   Al(SO4)2-       1.613e-12   9.318e-13   -11.792   -12.031    -0.238     (0)  
   AlHSO4+2        1.813e-17   2.134e-17   -16.742   -16.671     0.071     (0)  
   FeSO4+          4.673e-18   2.806e-18   -17.330   -17.552    -0.222     (0)  
   Fe(SO4)2-       1.887e-20   1.965e-20   -19.724   -19.707     0.018     (0)  
   FeHSO4+2        1.538e-23   1.810e-23   -22.813   -22.742     0.071     (0)  
Si            2.051e-04
   H4SiO4          2.051e-04   3.312e-04    -3.688    -3.480     0.208     51.34
   H3SiO4-         5.150e-08   2.844e-08    -7.288    -7.546    -0.258     29.59
   H2SiO4-2        1.036e-14   1.502e-15   -13.985   -14.823    -0.839     (0)  
   SiF6-2          7.144e-27   9.284e-28   -26.146   -27.032    -0.886     48.84
Sr            2.386e-05
   Sr+2            2.336e-05   5.828e-06    -4.632    -5.234    -0.603    -15.61
   SrHCO3+         2.568e-07   1.584e-07    -6.590    -6.800    -0.210     (0)  
   SrSO4           2.431e-07   3.926e-07    -6.614    -6.406     0.208     24.56
   SrCO3           9.180e-11   1.483e-10   -10.037    -9.829     0.208    -14.09
   SrOH+           1.996e-13   1.198e-13   -12.700   -12.921    -0.222     (0)  

------------------------------Saturation indices-------------------------------

  Phase               SI** log IAP   log K(308 K,   1 atm)

  Al(OH)3(a)       -3.44      6.73   10.17  Al(OH)3
  Albite           -2.53    -19.91  -17.39  NaAlSi3O8
  Alunite          -4.18     -6.78   -2.60  KAl3(SO4)2(OH)6
  Anhydrite        -0.16     -4.55   -4.39  CaSO4
  Anorthite        -7.06    -26.50  -19.44  CaAl2Si2O8
  Aragonite        -0.16     -8.56   -8.41  CaCO3
  Arcanite         -8.00     -9.76   -1.76  K2SO4
  Barite           -1.90    -11.66   -9.75  BaSO4
  Ca-Montmorillonite  -2.05    -45.69  -43.64  Ca0.165Al2.33Si3.67O10(OH)2
  Calcite           0.00     -8.56   -8.56  CaCO3
  Celestite        -2.03     -8.75   -6.71  SrSO4
  CH4(g)           -5.50     -8.38   -2.88  CH4	 Pressure   0.0 atm, phi 0.998
  Chalcedony       -0.00     -3.44   -3.44  SiO2
  Chlorite(14A)   -11.47     53.30   64.78  Mg5Al2Si3O10(OH)8
  Chrysotile       -7.81     23.19   31.00  Mg3Si2O5(OH)4
  CO2(g)           -0.61     -2.19   -1.58  CO2	 Pressure   0.2 atm, phi 0.996
  Dolomite          0.00    -17.28  -17.28  CaMg(CO3)2
  Epsomite         -3.17     -4.84   -1.68  MgSO4:7H2O
  Fe(OH)3(a)       -6.26     -1.36    4.89  Fe(OH)3
  FeS(ppt)          0.00     -3.91   -3.92  FeS
  Fluorite         -0.85    -11.35  -10.49  CaF2
  Gibbsite         -0.84      6.73    7.57  Al(OH)3
  Goethite         -0.00     -1.34   -1.34  FeOOH
  Gypsum            0.00     -4.59   -4.59  CaSO4:2H2O
  H2(g)            -7.39    -10.51   -3.12  H2
  H2O(g)           -1.28     -0.02    1.26  H2O
  H2S(g)           -3.82    -11.74   -7.92  H2S
  Halite           -1.92     -0.34    1.58  NaCl
  Hausmannite     -46.88     11.75   58.64  Mn3O4
  Hematite          2.07     -2.67   -4.74  Fe2O3
  Hexahydrite      -3.27     -4.82   -1.55  MgSO4:6H2O
  Hydroxyapatite   -4.99     -9.27   -4.28  Ca5(PO4)3OH
  Illite           -3.37    -42.34  -38.97  K0.6Mg0.25Al2.3Si3.5O10(OH)2
  Jarosite-K      -21.10    -31.05   -9.95  KFe3(SO4)2(OH)6
  K-feldspar       -2.89    -22.73  -19.84  KAlSi3O8
  K-mica            1.13     12.42   11.29  KAl3Si3O10(OH)2
  Kaolinite        -0.00      6.60    6.60  Al2Si2O5(OH)4
  Kieserite        -3.58     -4.72   -1.14  MgSO4:H2O
  Mackinawite       0.73     -3.91   -4.65  FeS
  Manganite       -20.22      5.12   25.34  MnOOH
  Melanterite      -4.98     -7.08   -2.10  FeSO4:7H2O
  Mirabilite       -3.48     -4.32   -0.84  Na2SO4:10H2O
  N2(g)            -0.12     -3.35   -3.23  N2	 Pressure   0.8 atm, phi 1.000
  NH3(g)           -8.40     -6.80    1.60  NH3
  O2(g)           -65.32    -68.27   -2.96  O2	 Pressure   0.0 atm, phi 0.999
  Pyrite            9.88     -8.33  -18.21  FeS2
  Pyrochroite     -13.74      1.46   15.20  Mn(OH)2
  Pyrolusite      -31.07      8.76   39.83  MnO2:H2O
  Quartz            0.40     -3.44   -3.84  SiO2
  Rhodochrosite    -6.11    -17.27  -11.16  MnCO3
  Sepiolite        -5.82      9.69   15.51  Mg2Si3O7.5OH:3H2O
  Sepiolite(d)     -8.97      9.69   18.66  Mg2Si3O7.5OH:3H2O
  Siderite          0.00    -10.95  -10.95  FeCO3
  SiO2(a)          -0.81     -3.44   -2.63  SiO2
  Strontianite     -3.47    -12.76   -9.29  SrCO3
  Sulfur           -2.25      2.40    4.66  S
  Sylvite          -4.11     -3.16    0.95  KCl
  Talc             -3.96     16.34   20.30  Mg3Si4O10(OH)2
  Thenardite       -3.77     -4.12   -0.35  Na2SO4
  Vivianite        -5.41    -41.41  -36.00  Fe3(PO4)2:8H2O
  Witherite        -7.11    -15.67   -8.56  BaCO3

**For a gas, SI = log10(fugacity). Fugacity = pressure * phi / 1 atm.
  For ideal gases, phi = 1.

------------------
End of simulation.
------------------

------------------------------------
Reading input data for simulation 4.
------------------------------------

