   Input file: sc1
  Output file: sc1.out
Database file: ../database/phreeqc.dat

------------------
Reading data base.
------------------

	SOLUTION_MASTER_SPECIES
	SOLUTION_SPECIES
	PHASES
	EXCHANGE_MASTER_SPECIES
	EXCHANGE_SPECIES
	SURFACE_MASTER_SPECIES
	SURFACE_SPECIES
	RATES
	END
------------------------------------
Reading input data for simulation 1.
------------------------------------

	DATABASE ../database/phreeqc.dat
	SURFACE_MASTER_SPECIES
	 Su_a Su_a
	 Su_b Su_b
	SURFACE_SPECIES
	 Su_a = Su_a
	 log_k 0
	 Su_b = Su_b
	 log_k 0
	SOLUTION 0
	 Na 1
	 Cl 0.1 charge
	 water 1
	SOLUTION 1-10
	 pH 7.0
	SURFACE 1
	 Su_a 1e-3 1e4 1 #Dw 1e-19
	 Su_b 1e-3
	 Hfo_w 1e-3 600 1 Dw 1e-19
	 Hfo_s 1e-3
	 equilibrate 1
	 donnan 1e-7 #d 1 l 0.99 v 1# 1e-9
	END
-------------------------------------------
Beginning of initial solution calculations.
-------------------------------------------

Initial solution 0.	

-----------------------------Solution composition------------------------------

	Elements           Molality       Moles

	Cl                1.000e-03   1.000e-03  Charge balance
	Na                1.000e-03   1.000e-03

----------------------------Description of solution----------------------------

                                       pH  =   7.000    
                                       pe  =   4.000    
       Specific Conductance (uS/cm, 25 oC) = 123
                          Density (g/cm3)  =   0.99708
                               Volume (L)  =   1.00298
                        Activity of water  =   1.000
                           Ionic strength  =   1.000e-03
                       Mass of water (kg)  =   1.000e+00
                 Total alkalinity (eq/kg)  =   1.451e-09
                    Total carbon (mol/kg)  =   0.000e+00
                       Total CO2 (mol/kg)  =   0.000e+00
                      Temperature (deg C)  =  25.00
                  Electrical balance (eq)  =  -1.027e-12
 Percent error, 100*(Cat-|An|)/(Cat+|An|)  =  -0.00
                               Iterations  =   5
                                  Total H  = 1.110124e+02
                                  Total O  = 5.550622e+01

----------------------------Distribution of species----------------------------

                                               Log       Log       Log    mole V
   Species          Molality    Activity  Molality  Activity     Gamma   cm3/mol

   OH-             1.049e-07   1.012e-07    -6.979    -6.995    -0.016     -4.11
   H+              1.035e-07   1.000e-07    -6.985    -7.000    -0.015      0.00
   H2O             5.551e+01   1.000e+00     1.744    -0.000     0.000     18.07
Cl            1.000e-03
   Cl-             1.000e-03   9.649e-04    -3.000    -3.016    -0.016     18.07
H(0)          1.416e-25
   H2              7.078e-26   7.079e-26   -25.150   -25.150     0.000     28.61
Na            1.000e-03
   Na+             1.000e-03   9.652e-04    -3.000    -3.015    -0.015     -1.39
   NaOH            9.767e-21   9.769e-21   -20.010   -20.010     0.000     (0)  
O(0)          0.000e+00
   O2              0.000e+00   0.000e+00   -42.080   -42.080     0.000     30.40

------------------------------Saturation indices-------------------------------

	Phase               SI   log IAP   log K(298 K,   1 atm)

	H2(g)           -22.05    -25.15   -3.10  H2
	H2O(g)           -1.50     -0.00    1.50  H2O
	Halite           -7.60     -6.03    1.57  NaCl
	O2(g)           -39.19    -42.08   -2.89  O2


Initial solution 1.	

-----------------------------Solution composition------------------------------

	Elements           Molality       Moles

	Pure water     

----------------------------Description of solution----------------------------

                                       pH  =   7.000    
                                       pe  =   4.000    
       Specific Conductance (uS/cm, 25 oC) = 0
                          Density (g/cm3)  =   0.99704
                               Volume (L)  =   1.00297
                        Activity of water  =   1.000
                           Ionic strength  =   1.007e-07
                       Mass of water (kg)  =   1.000e+00
                 Total alkalinity (eq/kg)  =   1.217e-09
                    Total carbon (mol/kg)  =   0.000e+00
                       Total CO2 (mol/kg)  =   0.000e+00
                      Temperature (deg C)  =  25.00
                  Electrical balance (eq)  =  -1.217e-09
 Percent error, 100*(Cat-|An|)/(Cat+|An|)  =  -0.60
                               Iterations  =   0
                                  Total H  = 1.110124e+02
                                  Total O  = 5.550622e+01

----------------------------Distribution of species----------------------------

                                               Log       Log       Log    mole V
   Species          Molality    Activity  Molality  Activity     Gamma   cm3/mol

   OH-             1.013e-07   1.012e-07    -6.995    -6.995    -0.000     -4.14
   H+              1.001e-07   1.000e-07    -7.000    -7.000    -0.000      0.00
   H2O             5.551e+01   1.000e+00     1.744     0.000     0.000     18.07
H(0)          1.416e-25
   H2              7.079e-26   7.079e-26   -25.150   -25.150     0.000     28.61
O(0)          0.000e+00
   O2              0.000e+00   0.000e+00   -42.080   -42.080     0.000     30.40

------------------------------Saturation indices-------------------------------

	Phase               SI   log IAP   log K(298 K,   1 atm)

	H2(g)           -22.05    -25.15   -3.10  H2
	H2O(g)           -1.50      0.00    1.50  H2O
	O2(g)           -39.19    -42.08   -2.89  O2


------------------------------------------------------
Beginning of initial surface-composition calculations.
------------------------------------------------------

Surface 1.	

Hfo           
	  5.134e-19  Surface + diffuse layer charge, eq
	  3.829e-07  Surface charge, eq
	  6.158e-05  sigma, C/m**2
	  6.564e-02  psi, V
	 -2.555e+00  -F*psi/RT
	  7.769e-02  exp(-F*psi/RT)
	  6.000e+02  specific area, m**2/g
	  6.000e+02  m**2 for   1.000e+00 g

	Water in diffuse layer: 6.000e-02 kg,  5.7% of total DDL-water.

	Total moles in diffuse layer (excluding water), Donnan calculation 

	Element       	     Moles
	H             	  3.8309e-07
	O             	  3.8300e-07

Hfo_s         
	  1.000e-03  moles
	                                   Mole                     Log
	Species               Moles    Fraction    Molality    Molality

	Hfo_sOH           7.676e-04       0.768   7.676e-04      -3.115
	Hfo_sOH2+         1.163e-04       0.116   1.163e-04      -3.934
	Hfo_sO-           1.161e-04       0.116   1.161e-04      -3.935

Hfo_w         
	  1.000e-03  moles
	                                   Mole                     Log
	Species               Moles    Fraction    Molality    Molality

	Hfo_wOH           7.676e-04       0.768   7.676e-04      -3.115
	Hfo_wOH2+         1.163e-04       0.116   1.163e-04      -3.934
	Hfo_wO-           1.161e-04       0.116   1.161e-04      -3.935

Su            
	  1.323e-23  Surface + diffuse layer charge, eq
	  0.000e+00  Surface charge, eq
	  0.000e+00  sigma, C/m**2
	 -6.859e-20  psi, V
	  2.670e-18  -F*psi/RT
	  1.000e+00  exp(-F*psi/RT)
	  1.000e+04  specific area, m**2/g
	  1.000e+04  m**2 for   1.000e+00 g

	Water in diffuse layer: 1.000e+00 kg, 94.3% of total DDL-water.

	Total moles in diffuse layer (excluding water), Donnan calculation 

	Element       	     Moles
	H             	  2.0129e-07
	O             	  1.0064e-07

Su_a          
	  1.000e-03  moles
	                                   Mole                     Log
	Species               Moles    Fraction    Molality    Molality

	Su_a              1.000e-03       1.000   1.000e-03      -3.000

Su_b          
	  1.000e-03  moles
	                                   Mole                     Log
	Species               Moles    Fraction    Molality    Molality

	Su_b              1.000e-03       1.000   1.000e-03      -3.000

-----------------------------------------
Beginning of batch-reaction calculations.
-----------------------------------------

Reaction step 1.

Using solution 0.	
Using surface 1.	

------------------------------Surface composition------------------------------

Hfo           
	  2.903e-13  Surface + diffuse layer charge, eq
	  2.094e-06  Surface charge, eq
	  3.368e-04  sigma, C/m**2
	  6.673e-03  psi, V
	 -2.598e-01  -F*psi/RT
	  7.712e-01  exp(-F*psi/RT)
	  6.000e+02  specific area, m**2/g
	  6.000e+02  m**2 for   1.000e+00 g

	Water in diffuse layer: 6.000e-02 kg,  5.7% of total DDL-water.

	Total moles in diffuse layer (excluding water), Donnan calculation 

	Element       	     Moles
	Cl            	  3.0159e-05
	H             	  6.4453e-08
	Na            	  2.8128e-05
	O             	  6.3854e-08

Hfo_s         
	  1.000e-03  moles
	                                   Mole                     Log
	Species               Moles    Fraction    Molality    Molality

	Hfo_sOH           7.676e-04       0.768   7.676e-04      -3.115
	Hfo_sOH2+         1.167e-04       0.117   1.167e-04      -3.933
	Hfo_sO-           1.157e-04       0.116   1.157e-04      -3.937

Hfo_w         
	  1.000e-03  moles
	                                   Mole                     Log
	Species               Moles    Fraction    Molality    Molality

	Hfo_wOH           7.676e-04       0.768   7.676e-04      -3.115
	Hfo_wOH2+         1.167e-04       0.117   1.167e-04      -3.933
	Hfo_wO-           1.157e-04       0.116   1.157e-04      -3.937

Su            
	 -1.027e-12  Surface + diffuse layer charge, eq
	  0.000e+00  Surface charge, eq
	  0.000e+00  sigma, C/m**2
	  1.215e-10  psi, V
	 -4.728e-09  -F*psi/RT
	  1.000e+00  exp(-F*psi/RT)
	  1.000e+04  specific area, m**2/g
	  1.000e+04  m**2 for   1.000e+00 g

	Water in diffuse layer: 1.000e+00 kg, 94.3% of total DDL-water.

	Total moles in diffuse layer (excluding water), Donnan calculation 

	Element       	     Moles
	Cl            	  4.8492e-04
	H             	  1.0370e-06
	Na            	  4.8594e-04
	O             	  1.0267e-06

Su_a          
	  1.000e-03  moles
	                                   Mole                     Log
	Species               Moles    Fraction    Molality    Molality

	Su_a              1.000e-03       1.000   1.000e-03      -3.000

Su_b          
	  1.000e-03  moles
	                                   Mole                     Log
	Species               Moles    Fraction    Molality    Molality

	Su_b              1.000e-03       1.000   1.000e-03      -3.000

-----------------------------Solution composition------------------------------

	Elements           Molality       Moles

	Cl                4.849e-04   4.849e-04
	Na                4.859e-04   4.859e-04

----------------------------Description of solution----------------------------

                                       pH  =   7.995      Charge balance
                                       pe  =  -2.288      Adjusted to redox equilibrium
       Specific Conductance (uS/cm, 25 oC) = 60
                          Density (g/cm3)  =   0.99706
                               Volume (L)  =   1.00297
                        Activity of water  =   1.000
                           Ionic strength  =   4.859e-04
                       Mass of water (kg)  =   1.000e+00
                 Total alkalinity (eq/kg)  =   1.016e-06
                    Total carbon (mol/kg)  =   0.000e+00
                       Total CO2 (mol/kg)  =   0.000e+00
                      Temperature (deg C)  =  25.00
                  Electrical balance (eq)  =  -1.027e-12
 Percent error, 100*(Cat-|An|)/(Cat+|An|)  =  -0.00
                               Iterations  =   0
                                  Total H  = 1.110124e+02
                                  Total O  = 5.550622e+01

----------------------------Distribution of species----------------------------

                                               Log       Log       Log    mole V
   Species          Molality    Activity  Molality  Activity     Gamma   cm3/mol

   OH-             1.027e-06   1.001e-06    -5.989    -6.000    -0.011     -4.12
   H+              1.036e-08   1.011e-08    -7.985    -7.995    -0.011      0.00
   H2O             5.551e+01   1.000e+00     1.744    -0.000     0.000     18.07
Cl            4.849e-04
   Cl-             4.849e-04   4.728e-04    -3.314    -3.325    -0.011     18.07
H(0)          5.454e-15
   H2              2.727e-15   2.727e-15   -14.564   -14.564     0.000     28.61
Na            4.859e-04
   Na+             4.859e-04   4.739e-04    -3.313    -3.324    -0.011     -1.40
   NaOH            4.744e-20   4.744e-20   -19.324   -19.324     0.000     (0)  
O(0)          0.000e+00
   O2              0.000e+00   0.000e+00   -63.252   -63.251     0.000     30.40

------------------------------Saturation indices-------------------------------

	Phase               SI   log IAP   log K(298 K,   1 atm)

	H2(g)           -11.46    -14.56   -3.10  H2
	H2O(g)           -1.50     -0.00    1.50  H2O
	Halite           -8.22     -6.65    1.57  NaCl
	O2(g)           -60.36    -63.25   -2.89  O2


------------------
End of simulation.
------------------

------------------------------------
Reading input data for simulation 2.
------------------------------------

	TRANSPORT
	 diffc 0e-9
	 cells 2
	 length 1
	 disp 0
	 shifts 2 1
	 bcond 3 3
	 timest 1e-8
	 punch_frequency 1
	 multi_d true 1e-9 1#0.547723 0 1
	SELECTED_OUTPUT
WARNING: Cell-lengths were read for 1 cells. Last value is used till cell 2.
WARNING: Dispersivities were read for 1 cells. Last value is used till cell 2.
	 file sc1.prn
	 reset false
	USER_PUNCH
	 heading dist Cl Su_a Su_b Hfo_w Hfo_s
	 start
	 10 punch dist, tot("Cl")*1e3 , tot("Su_a")*1e3, tot("Su_b")*1e3, tot("Hfo_w")*1e3, tot("Hfo_s")*1e3
	 end
	END
------------------------------------
Beginning of transport calculations.
------------------------------------

-------------------------------
Equilibrating initial solutions
-------------------------------

Using solution 1.	
Using surface 1.	

------------------------------Surface composition------------------------------

Hfo           
	 -5.721e-11  Surface + diffuse layer charge, eq
	  3.828e-07  Surface charge, eq
	  6.157e-05  sigma, C/m**2
	  6.564e-02  psi, V
	 -2.555e+00  -F*psi/RT
	  7.769e-02  exp(-F*psi/RT)
	  6.000e+02  specific area, m**2/g
	  6.000e+02  m**2 for   1.000e+00 g

	Water in diffuse layer: 6.000e-02 kg,  5.7% of total DDL-water.

	Total moles in diffuse layer (excluding water), Donnan calculation 

	Element       	     Moles
	H             	  3.8309e-07
	O             	  3.8300e-07

Hfo_s         
	  1.000e-03  moles
	                                   Mole                     Log
	Species               Moles    Fraction    Molality    Molality

	Hfo_sOH           7.676e-04       0.768   7.676e-04      -3.115
	Hfo_sOH2+         1.163e-04       0.116   1.163e-04      -3.934
	Hfo_sO-           1.161e-04       0.116   1.161e-04      -3.935

Hfo_w         
	  1.000e-03  moles
	                                   Mole                     Log
	Species               Moles    Fraction    Molality    Molality

	Hfo_wOH           7.676e-04       0.768   7.676e-04      -3.115
	Hfo_wOH2+         1.163e-04       0.116   1.163e-04      -3.934
	Hfo_wO-           1.161e-04       0.116   1.161e-04      -3.935

Su            
	 -1.504e-11  Surface + diffuse layer charge, eq
	  0.000e+00  Surface charge, eq
	  0.000e+00  sigma, C/m**2
	  2.003e-07  psi, V
	 -7.797e-06  -F*psi/RT
	  1.000e+00  exp(-F*psi/RT)
	  1.000e+04  specific area, m**2/g
	  1.000e+04  m**2 for   1.000e+00 g

	Water in diffuse layer: 1.000e+00 kg, 94.3% of total DDL-water.

	Total moles in diffuse layer (excluding water), Donnan calculation 

	Element       	     Moles
	H             	  2.0129e-07
	O             	  1.0065e-07

Su_a          
	  1.000e-03  moles
	                                   Mole                     Log
	Species               Moles    Fraction    Molality    Molality

	Su_a              1.000e-03       1.000   1.000e-03      -3.000

Su_b          
	  1.000e-03  moles
	                                   Mole                     Log
	Species               Moles    Fraction    Molality    Molality

	Su_b              1.000e-03       1.000   1.000e-03      -3.000

-----------------------------Solution composition------------------------------

	Elements           Molality       Moles

	Pure water     

----------------------------Description of solution----------------------------

                                       pH  =   7.000      Charge balance
                                       pe  =  10.531      Adjusted to redox equilibrium
       Specific Conductance (uS/cm, 25 oC) = 0
                          Density (g/cm3)  =   0.99704
                               Volume (L)  =   1.00297
                        Activity of water  =   1.000
                           Ionic strength  =   1.006e-07
                       Mass of water (kg)  =   1.000e+00
                 Total alkalinity (eq/kg)  =   1.217e-09
                    Total carbon (mol/kg)  =   0.000e+00
                       Total CO2 (mol/kg)  =   0.000e+00
                      Temperature (deg C)  =  25.00
                  Electrical balance (eq)  =  -1.217e-09
 Percent error, 100*(Cat-|An|)/(Cat+|An|)  =  -0.60
                               Iterations  =   0
                                  Total H  = 1.110124e+02
                                  Total O  = 5.550622e+01

----------------------------Distribution of species----------------------------

                                               Log       Log       Log    mole V
   Species          Molality    Activity  Molality  Activity     Gamma   cm3/mol

   OH-             1.013e-07   1.012e-07    -6.995    -6.995    -0.000     -4.14
   H+              1.000e-07   1.000e-07    -7.000    -7.000    -0.000      0.00
   H2O             5.551e+01   1.000e+00     1.744    -0.000     0.000     18.07
H(0)          1.229e-38
   H2              6.144e-39   6.144e-39   -38.212   -38.212     0.000     28.61
O(0)          2.208e-16
   O2              1.104e-16   1.104e-16   -15.957   -15.957     0.000     30.40

------------------------------Saturation indices-------------------------------

	Phase               SI   log IAP   log K(298 K,   1 atm)

	H2(g)           -35.11    -38.21   -3.10  H2
	H2O(g)           -1.50     -0.00    1.50  H2O
	O2(g)           -13.06    -15.96   -2.89  O2


Using solution 2.	

-----------------------------Solution composition------------------------------

	Elements           Molality       Moles

	Pure water     

----------------------------Description of solution----------------------------

                                       pH  =   7.000      Charge balance
                                       pe  =  10.804      Adjusted to redox equilibrium
       Specific Conductance (uS/cm, 25 oC) = 0
                          Density (g/cm3)  =   0.99704
                               Volume (L)  =   1.00297
                        Activity of water  =   1.000
                           Ionic strength  =   1.006e-07
                       Mass of water (kg)  =   1.000e+00
                 Total alkalinity (eq/kg)  =   1.217e-09
                    Total carbon (mol/kg)  =   0.000e+00
                       Total CO2 (mol/kg)  =   0.000e+00
                      Temperature (deg C)  =  25.00
                  Electrical balance (eq)  =  -1.217e-09
 Percent error, 100*(Cat-|An|)/(Cat+|An|)  =  -0.60
                               Iterations  =  10
                                  Total H  = 1.110124e+02
                                  Total O  = 5.550622e+01

----------------------------Distribution of species----------------------------

                                               Log       Log       Log    mole V
   Species          Molality    Activity  Molality  Activity     Gamma   cm3/mol

   OH-             1.013e-07   1.012e-07    -6.995    -6.995    -0.000     -4.14
   H+              1.000e-07   1.000e-07    -7.000    -7.000    -0.000      0.00
   H2O             5.551e+01   1.000e+00     1.744    -0.000     0.000     18.07
H(0)          3.485e-39
   H2              1.742e-39   1.742e-39   -38.759   -38.759     0.000     28.61
O(0)          2.746e-15
   O2              1.373e-15   1.373e-15   -14.862   -14.862     0.000     30.40

------------------------------Saturation indices-------------------------------

	Phase               SI   log IAP   log K(298 K,   1 atm)

	H2(g)           -35.66    -38.76   -3.10  H2
	H2O(g)           -1.50     -0.00    1.50  H2O
	O2(g)           -11.97    -14.86   -2.89  O2


Transport step   1.

Transport step   1. Multicomponent diffusion run   1.

Using mix 1.	
Using surface 1.	Copy

Mixture 1.	

	  0.000e+00 Solution 0	Solution after simulation 2.                           
	  1.000e+00 Solution 1	Solution after simulation 2.                           
	  0.000e+00 Solution 2	Solution after simulation 2.                           

------------------------------Surface composition------------------------------

Hfo           
	  1.892e-28  Surface + diffuse layer charge, eq
	  1.892e-28  Surface charge, eq
	undefined  sigma, C/m**2
	  6.563e-02  psi, V
	 -2.555e+00  -F*psi/RT
	  7.771e-02  exp(-F*psi/RT)
	  6.000e+02  specific area, m**2/g
	  0.000e+00  m**2 for   0.000e+00 g

	Water in diffuse layer: 0.000e+00 kg,  0.0% of total DDL-water.

	Total moles in diffuse layer (excluding water), Donnan calculation 

	Element       	     Moles
	Cl            	  5.0000e-16
	H             	  2.0633e-19
	Na            	  5.0000e-16
	O             	  1.0355e-19

Hfo_s         
	  1.000e-25  moles
	                                   Mole                     Log
	Species               Moles    Fraction    Molality    Molality

	Hfo_sOH           7.676e-26       0.000   7.676e-26     -25.115
	Hfo_sOH2+         1.167e-26       0.000   1.167e-26     -25.933
	Hfo_sO-           1.157e-26       0.000   1.157e-26     -25.937

Hfo_w         
	  1.000e-25  moles
	                                   Mole                     Log
	Species               Moles    Fraction    Molality    Molality

	Hfo_wOH           7.676e-26       0.000   7.676e-26     -25.115
	Hfo_wOH2+         1.167e-26       0.000   1.167e-26     -25.933
	Hfo_wO-           1.157e-26       0.000   1.157e-26     -25.937

Su            
	 -1.577e-11  Surface + diffuse layer charge, eq
	  0.000e+00  Surface charge, eq
	  0.000e+00  sigma, C/m**2
	  2.980e-09  psi, V
	 -1.160e-07  -F*psi/RT
	  1.000e+00  exp(-F*psi/RT)
	  1.000e+04  specific area, m**2/g
	  1.000e+04  m**2 for   1.000e+00 g

	Water in diffuse layer: 1.000e+00 kg, 100.0% of total DDL-water.

	Total moles in diffuse layer (excluding water), Donnan calculation 

	Element       	     Moles
	Cl            	  5.0000e-04
	H             	  2.0633e-07
	Na            	  5.0000e-04
	O             	  1.0355e-07

Su_a          
	  1.000e-03  moles
	                                   Mole                     Log
	Species               Moles    Fraction    Molality    Molality

	Su_a              1.000e-03       1.000   1.000e-03      -3.000

Su_b          
	  1.000e-03  moles
	                                   Mole                     Log
	Species               Moles    Fraction    Molality    Molality

	Su_b              1.000e-03       1.000   1.000e-03      -3.000

-----------------------------Solution composition------------------------------

	Elements           Molality       Moles

	Cl                5.000e-04   5.000e-04
	Na                5.000e-04   5.000e-04

----------------------------Description of solution----------------------------

                                       pH  =   6.999      Charge balance
                                       pe  =  11.748      Adjusted to redox equilibrium
       Specific Conductance (uS/cm, 25 oC) = 62
                          Density (g/cm3)  =   0.99706
                               Volume (L)  =   1.00297
                        Activity of water  =   1.000
                           Ionic strength  =   5.001e-04
                       Mass of water (kg)  =   1.000e+00
                 Total alkalinity (eq/kg)  =   7.328e-10
                    Total carbon (mol/kg)  =   0.000e+00
                       Total CO2 (mol/kg)  =   0.000e+00
                      Temperature (deg C)  =  25.00
                  Electrical balance (eq)  =  -2.526e-11
 Percent error, 100*(Cat-|An|)/(Cat+|An|)  =  -0.00
                               Iterations  =   0
                                  Total H  = 1.110124e+02
                                  Total O  = 5.550622e+01

----------------------------Distribution of species----------------------------

                                               Log       Log       Log    mole V
   Species          Molality    Activity  Molality  Activity     Gamma   cm3/mol

   OH-             1.035e-07   1.009e-07    -6.985    -6.996    -0.011     -4.12
   H+              1.028e-07   1.003e-07    -6.988    -6.999    -0.011      0.00
   H2O             5.551e+01   1.000e+00     1.744    -0.000     0.000     18.07
Cl            5.000e-04
   Cl-             5.000e-04   4.874e-04    -3.301    -3.312    -0.011     18.07
H(0)          0.000e+00
   H2              0.000e+00   0.000e+00   -40.644   -40.644     0.000     28.61
Na            5.000e-04
   Na+             5.000e-04   4.875e-04    -3.301    -3.312    -0.011     -1.40
   NaOH            4.919e-21   4.919e-21   -20.308   -20.308     0.000     (0)  
O(0)          1.621e-11
   O2              8.104e-12   8.105e-12   -11.091   -11.091     0.000     30.40

------------------------------Saturation indices-------------------------------

	Phase               SI   log IAP   log K(298 K,   1 atm)

	H2(g)           -37.54    -40.64   -3.10  H2
	H2O(g)           -1.50     -0.00    1.50  H2O
	Halite           -8.19     -6.62    1.57  NaCl
	O2(g)            -8.20    -11.09   -2.89  O2


Using mix 2.	
Using surface 2.	Copy

Mixture 2.	

	  0.000e+00 Solution 1	Solution after simulation 2.                           
	  1.000e+00 Solution 2	Solution after simulation 2.                           
	  0.000e+00 Solution 3	Solution after simulation 2.                           

------------------------------Surface composition------------------------------

Hfo           
	 -4.560e-19  Surface + diffuse layer charge, eq
	  3.799e-07  Surface charge, eq
	  6.109e-05  sigma, C/m**2
	  6.529e-02  psi, V
	 -2.541e+00  -F*psi/RT
	  7.876e-02  exp(-F*psi/RT)
	  6.000e+02  specific area, m**2/g
	  6.000e+02  m**2 for   1.000e+00 g

	Water in diffuse layer: 6.000e-02 kg, 100.0% of total DDL-water.

	Total moles in diffuse layer (excluding water), Donnan calculation 

	Element       	     Moles
	Cl            	  8.4395e-21
	H             	  3.8008e-07
	Na            	  1.0406e-23
	O             	  3.7999e-07

Hfo_s         
	  1.000e-03  moles
	                                   Mole                     Log
	Species               Moles    Fraction    Molality    Molality

	Hfo_sOH           7.676e-04       0.768   7.676e-04      -3.115
	Hfo_sOH2+         1.163e-04       0.116   1.163e-04      -3.934
	Hfo_sO-           1.161e-04       0.116   1.161e-04      -3.935

Hfo_w         
	  1.000e-03  moles
	                                   Mole                     Log
	Species               Moles    Fraction    Molality    Molality

	Hfo_wOH           7.676e-04       0.768   7.676e-04      -3.115
	Hfo_wOH2+         1.163e-04       0.116   1.163e-04      -3.934
	Hfo_wO-           1.161e-04       0.116   1.161e-04      -3.935

-----------------------------Solution composition------------------------------

	Elements           Molality       Moles

	Cl                2.280e-21   2.280e-21
	Na                1.070e-20   1.070e-20

----------------------------Description of solution----------------------------

                                       pH  =   7.006      Charge balance
                                       pe  =  -1.240      Adjusted to redox equilibrium
       Specific Conductance (uS/cm, 25 oC) = 0
                          Density (g/cm3)  =   0.99704
                               Volume (L)  =   1.00297
                        Activity of water  =   1.000
                           Ionic strength  =   1.007e-07
                       Mass of water (kg)  =   1.000e+00
                 Total alkalinity (eq/kg)  =   3.967e-09
                    Total carbon (mol/kg)  =   0.000e+00
                       Total CO2 (mol/kg)  =   0.000e+00
                      Temperature (deg C)  =  25.00
                  Electrical balance (eq)  =  -3.967e-09
 Percent error, 100*(Cat-|An|)/(Cat+|An|)  =  -1.97
                               Iterations  =   0
                                  Total H  = 1.110124e+02
                                  Total O  = 5.550622e+01

----------------------------Distribution of species----------------------------

                                               Log       Log       Log    mole V
   Species          Molality    Activity  Molality  Activity     Gamma   cm3/mol

   OH-             1.026e-07   1.026e-07    -6.989    -6.989    -0.000     -4.14
   H+              9.868e-08   9.864e-08    -7.006    -7.006    -0.000      0.00
   H2O             5.551e+01   1.000e+00     1.744    -0.000     0.000     18.07
Cl            2.280e-21
   Cl-             2.280e-21   2.279e-21   -20.642   -20.642    -0.000     18.05
H(0)          4.162e-15
   H2              2.081e-15   2.081e-15   -14.682   -14.682     0.000     28.61
Na            1.070e-20
   Na+             1.070e-20   1.070e-20   -19.971   -19.971    -0.000     -1.42
   NaOH            1.098e-37   1.098e-37   -36.960   -36.960     0.000     (0)  
O(0)          0.000e+00
   O2              0.000e+00   0.000e+00   -63.016   -63.016     0.000     30.40

------------------------------Saturation indices-------------------------------

	Phase               SI   log IAP   log K(298 K,   1 atm)

	H2(g)           -11.58    -14.68   -3.10  H2
	H2O(g)           -1.50     -0.00    1.50  H2O
	Halite          -42.18    -40.61    1.57  NaCl
	O2(g)           -60.12    -63.02   -2.89  O2


Transport step   2.

Transport step   2. Multicomponent diffusion run   1.

Using mix 1.	
Using surface 1.	Copy

Mixture 1.	

	  0.000e+00 Solution 0	Solution after simulation 2.                           
	  1.000e+00 Solution 1	Solution after simulation 2.                           
	  0.000e+00 Solution 2	Solution after simulation 2.                           

------------------------------Surface composition------------------------------

Hfo           
	 -1.831e-23  Surface + diffuse layer charge, eq
	  1.201e-28  Surface charge, eq
	undefined  sigma, C/m**2
	  6.563e-02  psi, V
	 -2.555e+00  -F*psi/RT
	  7.771e-02  exp(-F*psi/RT)
	  6.000e+02  specific area, m**2/g
	  0.000e+00  m**2 for   0.000e+00 g

	Water in diffuse layer: 0.000e+00 kg,  0.0% of total DDL-water.

	Total moles in diffuse layer (excluding water), Donnan calculation 

	Element       	     Moles
	Cl            	  7.5000e-16
	H             	  2.0744e-19
	Na            	  7.5000e-16
	O             	  1.0446e-19

Hfo_s         
	  1.000e-25  moles
	                                   Mole                     Log
	Species               Moles    Fraction    Molality    Molality

	Hfo_sOH           7.676e-26       0.000   7.676e-26     -25.115
	Hfo_sOH2+         1.165e-26       0.000   1.165e-26     -25.934
	Hfo_sO-           1.159e-26       0.000   1.159e-26     -25.936

Hfo_w         
	  1.000e-25  moles
	                                   Mole                     Log
	Species               Moles    Fraction    Molality    Molality

	Hfo_wOH           7.676e-26       0.000   7.676e-26     -25.115
	Hfo_wOH2+         1.165e-26       0.000   1.165e-26     -25.934
	Hfo_wO-           1.159e-26       0.000   1.159e-26     -25.936

Su            
	 -1.588e-11  Surface + diffuse layer charge, eq
	  0.000e+00  Surface charge, eq
	  0.000e+00  sigma, C/m**2
	  2.451e-09  psi, V
	 -9.541e-08  -F*psi/RT
	  1.000e+00  exp(-F*psi/RT)
	  1.000e+04  specific area, m**2/g
	  1.000e+04  m**2 for   1.000e+00 g

	Water in diffuse layer: 1.000e+00 kg, 100.0% of total DDL-water.

	Total moles in diffuse layer (excluding water), Donnan calculation 

	Element       	     Moles
	Cl            	  7.5000e-04
	H             	  2.0744e-07
	Na            	  7.5000e-04
	O             	  1.0446e-07

Su_a          
	  1.000e-03  moles
	                                   Mole                     Log
	Species               Moles    Fraction    Molality    Molality

	Su_a              1.000e-03       1.000   1.000e-03      -3.000

Su_b          
	  1.000e-03  moles
	                                   Mole                     Log
	Species               Moles    Fraction    Molality    Molality

	Su_b              1.000e-03       1.000   1.000e-03      -3.000

-----------------------------Solution composition------------------------------

	Elements           Molality       Moles

	Cl                7.500e-04   7.500e-04
	Na                7.500e-04   7.500e-04

----------------------------Description of solution----------------------------

                                       pH  =   6.999      Charge balance
                                       pe  =  12.019      Adjusted to redox equilibrium
       Specific Conductance (uS/cm, 25 oC) = 92
                          Density (g/cm3)  =   0.99707
                               Volume (L)  =   1.00298
                        Activity of water  =   1.000
                           Ionic strength  =   7.501e-04
                       Mass of water (kg)  =   1.000e+00
                 Total alkalinity (eq/kg)  =   1.092e-09
                    Total carbon (mol/kg)  =   0.000e+00
                       Total CO2 (mol/kg)  =   0.000e+00
                      Temperature (deg C)  =  25.00
                  Electrical balance (eq)  =  -1.831e-11
 Percent error, 100*(Cat-|An|)/(Cat+|An|)  =  -0.00
                               Iterations  =   0
                                  Total H  = 1.110124e+02
                                  Total O  = 5.550622e+01

----------------------------Distribution of species----------------------------

                                               Log       Log       Log    mole V
   Species          Molality    Activity  Molality  Activity     Gamma   cm3/mol

   OH-             1.043e-07   1.011e-07    -6.982    -6.995    -0.014     -4.11
   H+              1.032e-07   1.001e-07    -6.986    -6.999    -0.013      0.00
   H2O             5.551e+01   1.000e+00     1.744    -0.000     0.000     18.07
Cl            7.500e-04
   Cl-             7.500e-04   7.270e-04    -3.125    -3.138    -0.014     18.07
H(0)          0.000e+00
   H2              0.000e+00   0.000e+00   -41.187   -41.187     0.000     28.61
Na            7.500e-04
   Na+             7.500e-04   7.272e-04    -3.125    -3.138    -0.013     -1.39
   NaOH            7.348e-21   7.349e-21   -20.134   -20.134     0.000     (0)  
O(0)          1.973e-10
   O2              9.865e-11   9.867e-11   -10.006   -10.006     0.000     30.40

------------------------------Saturation indices-------------------------------

	Phase               SI   log IAP   log K(298 K,   1 atm)

	H2(g)           -38.09    -41.19   -3.10  H2
	H2O(g)           -1.50     -0.00    1.50  H2O
	Halite           -7.85     -6.28    1.57  NaCl
	O2(g)            -7.11    -10.01   -2.89  O2


Using mix 2.	
Using surface 2.	Copy

Mixture 2.	

	  0.000e+00 Solution 1	Solution after simulation 2.                           
	  1.000e+00 Solution 2	Solution after simulation 2.                           
	  0.000e+00 Solution 3	Solution after simulation 2.                           

------------------------------Surface composition------------------------------

Hfo           
	 -2.526e-23  Surface + diffuse layer charge, eq
	  1.892e-28  Surface charge, eq
	undefined  sigma, C/m**2
	  6.563e-02  psi, V
	 -2.555e+00  -F*psi/RT
	  7.771e-02  exp(-F*psi/RT)
	  6.000e+02  specific area, m**2/g
	  0.000e+00  m**2 for   0.000e+00 g

	Water in diffuse layer: 0.000e+00 kg,  0.0% of total DDL-water.

	Total moles in diffuse layer (excluding water), Donnan calculation 

	Element       	     Moles
	Cl            	  5.0000e-16
	H             	  2.0633e-19
	Na            	  5.0000e-16
	O             	  1.0355e-19

Hfo_s         
	  1.000e-25  moles
	                                   Mole                     Log
	Species               Moles    Fraction    Molality    Molality

	Hfo_sOH           7.676e-26       0.000   7.676e-26     -25.115
	Hfo_sOH2+         1.167e-26       0.000   1.167e-26     -25.933
	Hfo_sO-           1.157e-26       0.000   1.157e-26     -25.937

Hfo_w         
	  1.000e-25  moles
	                                   Mole                     Log
	Species               Moles    Fraction    Molality    Molality

	Hfo_wOH           7.676e-26       0.000   7.676e-26     -25.115
	Hfo_wOH2+         1.167e-26       0.000   1.167e-26     -25.933
	Hfo_wO-           1.157e-26       0.000   1.157e-26     -25.937

-----------------------------Solution composition------------------------------

	Elements           Molality       Moles

	Cl                5.000e-04   5.000e-04
	Na                5.000e-04   5.000e-04

----------------------------Description of solution----------------------------

                                       pH  =   6.999      Charge balance
                                       pe  =  11.749      Adjusted to redox equilibrium
       Specific Conductance (uS/cm, 25 oC) = 62
                          Density (g/cm3)  =   0.99706
                               Volume (L)  =   1.00297
                        Activity of water  =   1.000
                           Ionic strength  =   5.001e-04
                       Mass of water (kg)  =   1.000e+00
                 Total alkalinity (eq/kg)  =   7.328e-10
                    Total carbon (mol/kg)  =   0.000e+00
                       Total CO2 (mol/kg)  =   0.000e+00
                      Temperature (deg C)  =  25.00
                  Electrical balance (eq)  =  -2.526e-11
 Percent error, 100*(Cat-|An|)/(Cat+|An|)  =  -0.00
                               Iterations  =   0
                                  Total H  = 1.110124e+02
                                  Total O  = 5.550622e+01

----------------------------Distribution of species----------------------------

                                               Log       Log       Log    mole V
   Species          Molality    Activity  Molality  Activity     Gamma   cm3/mol

   OH-             1.035e-07   1.009e-07    -6.985    -6.996    -0.011     -4.12
   H+              1.028e-07   1.003e-07    -6.988    -6.999    -0.011      0.00
   H2O             5.551e+01   1.000e+00     1.744    -0.000     0.000     18.07
Cl            5.000e-04
   Cl-             5.000e-04   4.874e-04    -3.301    -3.312    -0.011     18.07
H(0)          0.000e+00
   H2              0.000e+00   0.000e+00   -40.645   -40.645     0.000     28.61
Na            5.000e-04
   Na+             5.000e-04   4.875e-04    -3.301    -3.312    -0.011     -1.40
   NaOH            4.919e-21   4.919e-21   -20.308   -20.308     0.000     (0)  
O(0)          1.622e-11
   O2              8.111e-12   8.112e-12   -11.091   -11.091     0.000     30.40

------------------------------Saturation indices-------------------------------

	Phase               SI   log IAP   log K(298 K,   1 atm)

	H2(g)           -37.54    -40.64   -3.10  H2
	H2O(g)           -1.50     -0.00    1.50  H2O
	Halite           -8.19     -6.62    1.57  NaCl
	O2(g)            -8.20    -11.09   -2.89  O2


------------------
End of simulation.
------------------

------------------------------------
Reading input data for simulation 3.
------------------------------------

------------------------------
End of Run after 0.03 Seconds.
------------------------------

