   Input file: sc6
  Output file: sc6.out
Database file: phreeqc.dat

------------------
Reading data base.
------------------

	SOLUTION_MASTER_SPECIES
	SOLUTION_SPECIES
	PHASES
	EXCHANGE_MASTER_SPECIES
	EXCHANGE_SPECIES
	SURFACE_MASTER_SPECIES
	SURFACE_SPECIES
	RATES
	END
------------------------------------
Reading input data for simulation 1.
------------------------------------

	SOLUTION_SPECIES
	 Na+ = Na+
	 log_k 0
	 gamma 1e10 0
	 Ca+2 = Ca+2
	 log_k 0
	 gamma 1e10 0
	 Cl- = Cl-
	 log_k 0
	 gamma 1e10 0
	 H2O + 0.01e- = H2O-0.01
	 log_k -9
	SURFACE_MASTER_SPECIES
	 Sua Sua
	 Sub Sub
	 Suc Suc
	SURFACE_SPECIES
	 Sua = Sua
	 log_k 0
	 Sub = Sub
	 log_k 0
	 Suc = Suc
	 log_k 0
	SURFACE_MASTER_SPECIES /* defined sorbed form of Hfo = Sorbedhfo */
	 Sorbedhfo_s Sorbedhfo_sOH
	 Sorbedhfo_w Sorbedhfo_wOH
	SURFACE_SPECIES
	 Sorbedhfo_sOH = Sorbedhfo_sOH
	 log_k 0.0
	 Sorbedhfo_sOH + H+ = Sorbedhfo_sOH2+
	 log_k 7.29
	 Sorbedhfo_sOH = Sorbedhfo_sO- + H+
	 log_k -8.93
	 Sorbedhfo_wOH = Sorbedhfo_wOH
	 log_k 0.0
	 Sorbedhfo_wOH + H+ = Sorbedhfo_wOH2+
	 log_k 7.29
	 Sorbedhfo_wOH = Sorbedhfo_wO- + H+
	 log_k -8.93
	 Sorbedhfo_sOH + Ca+2 = Sorbedhfo_sOHCa+2
	 log_k 4.97
	 Sorbedhfo_wOH + Ca+2 = Sorbedhfo_wOCa+ + H+
	 log_k -5.85
	 Sorbedhfo_sOH + Zn+2 = Sorbedhfo_sOZn+ + H+
	 log_k 0.99
	 Sorbedhfo_wOH + Zn+2 = Sorbedhfo_wOZn+ + H+
	 log_k -1.99
	SOLUTION 0-21
	END          
-------------------------------------------
Beginning of initial solution calculations.
-------------------------------------------

Initial solution 0.	

-----------------------------Solution composition------------------------------

	Elements           Molality       Moles

	Pure water     

----------------------------Description of solution----------------------------

                                       pH  =   7.000    
                                       pe  =   4.000    
                        Activity of water  =   1.000
                           Ionic strength  =   1.001e-07
                       Mass of water (kg)  =   1.000e+00
                 Total alkalinity (eq/kg)  =   1.082e-10
                    Total carbon (mol/kg)  =   0.000e+00
                       Total CO2 (mol/kg)  =   0.000e+00
                      Temperature (deg C)  =  25.000
                  Electrical balance (eq)  =  -1.173e-10
 Percent error, 100*(Cat-|An|)/(Cat+|An|)  =  -0.06
                               Iterations  =   0
                                  Total H  = 1.110124e+02
                                  Total O  = 5.550622e+01

----------------------------Distribution of species----------------------------

                                                   Log       Log         Log 
   Species                 Molality    Activity  Molality  Activity     Gamma

   OH-                    1.002e-07   1.001e-07    -6.999    -6.999     0.000
   H+                     1.001e-07   1.000e-07    -7.000    -7.000     0.000
   H2O-0.01               9.120e-10   9.120e-10    -9.040    -9.040     0.000
   H2O                    5.551e+01   1.000e+00     1.744     0.000     0.000
H(0)             1.416e-25
   H2                     7.079e-26   7.079e-26   -25.150   -25.150     0.000
O(0)             0.000e+00
   O2                     0.000e+00   0.000e+00   -42.080   -42.080     0.000

------------------------------Saturation indices-------------------------------

	Phase               SI log IAP  log KT

	H2(g)           -22.00  -25.15   -3.15  H2
	H2O(g)           -1.51    0.00    1.51  H2O
	O2(g)           -39.12  -42.08   -2.96  O2

------------------
End of simulation.
------------------

------------------------------------
Reading input data for simulation 2.
------------------------------------

	SOLUTION 0
	 Na 1
	 Ca 1e-3
	 Cl 1
	SURFACE 0
	 Sua 1e-3 1e4 1 Dw 1e-9
	 donnan 1e-12 #d 1 l 0.99 v 1# 1e-9
	 Sub 1e-3 1e4 1 Dw 1e-12
	 donnan 1e-12 #d 1 l 0.99 v 1# 1e-9
	 Hfo_w 97.5e-5 600 88e-3 Dw 1e-12
	 Hfo_s 2.5e-5
	 donnan 1e-12 #d 1 l 0.99 v 1# 1e-9
	 equilibrate 0
	END
-------------------------------------------
Beginning of initial solution calculations.
-------------------------------------------

Initial solution 0.	

-----------------------------Solution composition------------------------------

	Elements           Molality       Moles

	Ca                1.000e-06   1.000e-06
	Cl                1.000e-03   1.000e-03
	Na                1.000e-03   1.000e-03

----------------------------Description of solution----------------------------

                                       pH  =   7.000    
                                       pe  =   4.000    
                        Activity of water  =   1.000
                           Ionic strength  =   1.002e-03
                       Mass of water (kg)  =   1.000e+00
                 Total alkalinity (eq/kg)  =   3.702e-10
                    Total carbon (mol/kg)  =   0.000e+00
                       Total CO2 (mol/kg)  =   0.000e+00
                      Temperature (deg C)  =  25.000
                  Electrical balance (eq)  =   2.000e-06
 Percent error, 100*(Cat-|An|)/(Cat+|An|)  =   0.10
                               Iterations  =   1
                                  Total H  = 1.110124e+02
                                  Total O  = 5.550622e+01

----------------------------Distribution of species----------------------------

                                                   Log       Log         Log 
   Species                 Molality    Activity  Molality  Activity     Gamma

   OH-                    1.038e-07   1.001e-07    -6.984    -7.000    -0.016
   H+                     1.035e-07   1.000e-07    -6.985    -7.000    -0.015
   H2O-0.01               9.120e-10   9.120e-10    -9.040    -9.040     0.000
   H2O                    5.551e+01   1.000e+00     1.744     0.000     0.000
Ca               1.000e-06
   Ca+2                   1.000e-06   1.000e-06    -6.000    -6.000     0.000
   CaOH+                  1.720e-12   1.660e-12   -11.765   -11.780    -0.015
Cl               1.000e-03
   Cl-                    1.000e-03   1.000e-03    -3.000    -3.000     0.000
H(0)             1.416e-25
   H2                     7.078e-26   7.079e-26   -25.150   -25.150     0.000
Na               1.000e-03
   Na+                    1.000e-03   1.000e-03    -3.000    -3.000     0.000
   NaOH                   6.605e-11   6.607e-11   -10.180   -10.180     0.000
O(0)             0.000e+00
   O2                     0.000e+00   0.000e+00   -42.080   -42.080     0.000

------------------------------Saturation indices-------------------------------

	Phase               SI log IAP  log KT

	H2(g)           -22.00  -25.15   -3.15  H2
	H2O(g)           -1.51    0.00    1.51  H2O
	Halite           -7.58   -6.00    1.58  NaCl
	O2(g)           -39.12  -42.08   -2.96  O2

------------------------------------------------------
Beginning of initial surface-composition calculations.
------------------------------------------------------

Surface 0.	

Hfo           
	  8.554e-18  Surface + diffuse layer charge, eq
	  3.338e-06  Surface charge, eq
	  6.101e-03  sigma, C/m**2
	  6.530e-02  psi, V
	 -2.542e+00  -F*psi/RT
	  7.874e-02  exp(-F*psi/RT)
	  6.000e+02  specific area, m**2/g
	  5.280e+01  m**2 for   8.800e-02 g

	Water in diffuse layer: 5.280000e-08 kg.   Thickness: 1.000000e-12 m.

	Total moles in diffuse layer (excluding water), Donnan calculation 

	Element       	     Moles
	Ca            	  1.4647e-23
	Cl            	  3.3380e-06
	H             	  3.4634e-10
	Na            	  8.3866e-16
	O             	  3.4634e-10

Hfo_s         
	  2.500e-05  moles
	                                   Mole                     Log
	Species               Moles    Fraction    Molality    Molality

	Hfo_sOH           1.918e-05       0.767   1.918e-05      -4.717
	Hfo_sOH2+         2.945e-06       0.118   2.945e-06      -5.531
	Hfo_sO-           2.862e-06       0.114   2.862e-06      -5.543
	Hfo_sOHCa+2       1.110e-08       0.000   1.110e-08      -7.955

Hfo_w         
	  9.750e-04  moles
	                                   Mole                     Log
	Species               Moles    Fraction    Molality    Molality

	Hfo_wOH           7.484e-04       0.768   7.484e-04      -3.126
	Hfo_wOH2+         1.149e-04       0.118   1.149e-04      -3.940
	Hfo_wO-           1.117e-04       0.115   1.117e-04      -3.952
	Hfo_wOCa+         8.324e-10       0.000   8.324e-10      -9.080

Sua           
	 -1.353e-26  Surface + diffuse layer charge, eq
	  0.000e+00  Surface charge, eq
	  0.000e+00  sigma, C/m**2
	  3.550e-23  psi, V
	 -1.382e-21  -F*psi/RT
	  1.000e+00  exp(-F*psi/RT)
	  1.000e+04  specific area, m**2/g
	  1.000e+04  m**2 for   1.000e+00 g

	Water in diffuse layer: 1.000000e-05 kg.   Thickness: 1.000000e-12 m.

	Total moles in diffuse layer (excluding water), Donnan calculation 

	Element       	     Moles
	Ca            	  9.9801e-12
	Cl            	  1.0010e-08
	H             	  2.0910e-12
	Na            	  9.9900e-09
	O             	  1.0484e-12

Sua           
	  1.000e-03  moles
	                                   Mole                     Log
	Species               Moles    Fraction    Molality    Molality

	Sua               1.000e-03       1.000   1.000e-03      -3.000

Sub           
	 -1.353e-26  Surface + diffuse layer charge, eq
	  0.000e+00  Surface charge, eq
	  0.000e+00  sigma, C/m**2
	  3.550e-23  psi, V
	 -1.382e-21  -F*psi/RT
	  1.000e+00  exp(-F*psi/RT)
	  1.000e+04  specific area, m**2/g
	  1.000e+04  m**2 for   1.000e+00 g

	Water in diffuse layer: 1.000000e-05 kg.   Thickness: 1.000000e-12 m.

	Total moles in diffuse layer (excluding water), Donnan calculation 

	Element       	     Moles
	Ca            	  9.9801e-12
	Cl            	  1.0010e-08
	H             	  2.0910e-12
	Na            	  9.9900e-09
	O             	  1.0484e-12

Sub           
	  1.000e-03  moles
	                                   Mole                     Log
	Species               Moles    Fraction    Molality    Molality

	Sub               1.000e-03       1.000   1.000e-03      -3.000

-----------------------------------------
Beginning of batch-reaction calculations.
-----------------------------------------

Reaction step 1.

Using solution 0.	
Using surface 0.	Surface assemblage after simulation 2.

------------------------------Surface composition------------------------------

Hfo           
	 -1.271e-12  Surface + diffuse layer charge, eq
	  3.338e-06  Surface charge, eq
	  6.101e-03  sigma, C/m**2
	  6.530e-02  psi, V
	 -2.542e+00  -F*psi/RT
	  7.874e-02  exp(-F*psi/RT)
	  6.000e+02  specific area, m**2/g
	  5.280e+01  m**2 for   8.800e-02 g

	Water in diffuse layer: 5.280000e-08 kg.   Thickness: 1.000000e-12 m.

	Total moles in diffuse layer (excluding water), Donnan calculation 

	Element       	     Moles
	Ca            	  1.4647e-23
	Cl            	  3.3380e-06
	H             	  3.4634e-10
	Na            	  8.3866e-16
	O             	  3.4634e-10

Hfo_s         
	  2.500e-05  moles
	                                   Mole                     Log
	Species               Moles    Fraction    Molality    Molality

	Hfo_sOH           1.918e-05       0.767   1.918e-05      -4.717
	Hfo_sOH2+         2.945e-06       0.118   2.945e-06      -5.531
	Hfo_sO-           2.862e-06       0.114   2.862e-06      -5.543
	Hfo_sOHCa+2       1.110e-08       0.000   1.110e-08      -7.955

Hfo_w         
	  9.750e-04  moles
	                                   Mole                     Log
	Species               Moles    Fraction    Molality    Molality

	Hfo_wOH           7.484e-04       0.768   7.484e-04      -3.126
	Hfo_wOH2+         1.149e-04       0.118   1.149e-04      -3.940
	Hfo_wO-           1.117e-04       0.115   1.117e-04      -3.952
	Hfo_wOCa+         8.324e-10       0.000   8.324e-10      -9.080

Sua           
	 -8.765e-18  Surface + diffuse layer charge, eq
	  0.000e+00  Surface charge, eq
	  0.000e+00  sigma, C/m**2
	  1.167e-15  psi, V
	 -4.542e-14  -F*psi/RT
	  1.000e+00  exp(-F*psi/RT)
	  1.000e+04  specific area, m**2/g
	  1.000e+04  m**2 for   1.000e+00 g

	Water in diffuse layer: 1.000000e-05 kg.   Thickness: 1.000000e-12 m.

	Total moles in diffuse layer (excluding water), Donnan calculation 

	Element       	     Moles
	Ca            	  9.9801e-12
	Cl            	  1.0010e-08
	H             	  2.0910e-12
	Na            	  9.9900e-09
	O             	  1.0484e-12

Sua           
	  1.000e-03  moles
	                                   Mole                     Log
	Species               Moles    Fraction    Molality    Molality

	Sua               1.000e-03       1.000   1.000e-03      -3.000

Sub           
	 -8.765e-18  Surface + diffuse layer charge, eq
	  0.000e+00  Surface charge, eq
	  0.000e+00  sigma, C/m**2
	  1.167e-15  psi, V
	 -4.542e-14  -F*psi/RT
	  1.000e+00  exp(-F*psi/RT)
	  1.000e+04  specific area, m**2/g
	  1.000e+04  m**2 for   1.000e+00 g

	Water in diffuse layer: 1.000000e-05 kg.   Thickness: 1.000000e-12 m.

	Total moles in diffuse layer (excluding water), Donnan calculation 

	Element       	     Moles
	Ca            	  9.9801e-12
	Cl            	  1.0010e-08
	H             	  2.0910e-12
	Na            	  9.9900e-09
	O             	  1.0484e-12

Sub           
	  1.000e-03  moles
	                                   Mole                     Log
	Species               Moles    Fraction    Molality    Molality

	Sub               1.000e-03       1.000   1.000e-03      -3.000

-----------------------------Solution composition------------------------------

	Elements           Molality       Moles

	Ca                1.000e-06   1.000e-06
	Cl                1.000e-03   1.000e-03
	Na                1.000e-03   1.000e-03

----------------------------Description of solution----------------------------

                                       pH  =   7.000      Charge balance
                                       pe  =   3.981      Adjusted to redox equilibrium
                        Activity of water  =   1.000
                           Ionic strength  =   1.002e-03
                       Mass of water (kg)  =   1.000e+00
                 Total alkalinity (eq/kg)  =   3.701e-10
                    Total carbon (mol/kg)  =   0.000e+00
                       Total CO2 (mol/kg)  =   0.000e+00
                      Temperature (deg C)  =  25.000
                  Electrical balance (eq)  =   2.000e-06
 Percent error, 100*(Cat-|An|)/(Cat+|An|)  =   0.10
                               Iterations  =   0
                                  Total H  = 1.110124e+02
                                  Total O  = 5.550622e+01

----------------------------Distribution of species----------------------------

                                                   Log       Log         Log 
   Species                 Molality    Activity  Molality  Activity     Gamma

   OH-                    1.038e-07   1.001e-07    -6.984    -7.000    -0.016
   H+                     1.035e-07   1.000e-07    -6.985    -7.000    -0.015
   H2O-0.01               9.124e-10   9.124e-10    -9.040    -9.040     0.000
   H2O                    5.551e+01   1.000e+00     1.744     0.000     0.000
Ca               1.000e-06
   Ca+2                   1.000e-06   1.000e-06    -6.000    -6.000     0.000
   CaOH+                  1.720e-12   1.660e-12   -11.765   -11.780    -0.015
Cl               1.000e-03
   Cl-                    1.000e-03   1.000e-03    -3.000    -3.000     0.000
H(0)             1.545e-25
   H2                     7.724e-26   7.726e-26   -25.112   -25.112     0.000
Na               1.000e-03
   Na+                    1.000e-03   1.000e-03    -3.000    -3.000     0.000
   NaOH                   6.605e-11   6.607e-11   -10.180   -10.180     0.000
O(0)             0.000e+00
   O2                     0.000e+00   0.000e+00   -42.156   -42.156     0.000

------------------------------Saturation indices-------------------------------

	Phase               SI log IAP  log KT

	H2(g)           -21.96  -25.11   -3.15  H2
	H2O(g)           -1.51    0.00    1.51  H2O
	Halite           -7.58   -6.00    1.58  NaCl
	O2(g)           -39.20  -42.16   -2.96  O2

------------------
End of simulation.
------------------

------------------------------------
Reading input data for simulation 3.
------------------------------------

	PRINT
	 reset false
WARNING: Cell-lengths were read for 1 cells. Last value is used till cell 3.
WARNING: Dispersivities were read for 1 cells. Last value is used till cell 3.
----------------------------------User print-----------------------------------


----------------------------------User print-----------------------------------


----------------------------------User print-----------------------------------


----------------------------------User print-----------------------------------

Adapting surface in            1 

------------------------------Surface composition------------------------------

Hfo           
	 -1.271e-12  Surface + diffuse layer charge, eq
	  3.338e-06  Surface charge, eq
	  6.101e-03  sigma, C/m**2
	  6.530e-02  psi, V
	 -2.542e+00  -F*psi/RT
	  7.874e-02  exp(-F*psi/RT)
	  6.000e+02  specific area, m**2/g
	  5.280e+01  m**2 for   8.800e-02 g

	Water in diffuse layer: 5.280000e-08 kg.   Thickness: 1.000000e-12 m.

	Total moles in diffuse layer (excluding water), Donnan calculation 

	Element       	     Moles
	Ca            	  1.4647e-23
	Cl            	  3.3380e-06
	H             	  3.4634e-10
	Na            	  8.3866e-16
	O             	  3.4634e-10

Hfo_s         
	  2.500e-05  moles
	                                   Mole                     Log
	Species               Moles    Fraction    Molality    Molality

	Hfo_sOH           1.918e-05       0.767   1.918e-05      -4.717
	Hfo_sOH2+         2.945e-06       0.118   2.945e-06      -5.531
	Hfo_sO-           2.862e-06       0.114   2.862e-06      -5.543
	Hfo_sOHCa+2       1.110e-08       0.000   1.110e-08      -7.955

Hfo_w         
	  9.750e-04  moles
	                                   Mole                     Log
	Species               Moles    Fraction    Molality    Molality

	Hfo_wOH           7.484e-04       0.768   7.484e-04      -3.126
	Hfo_wOH2+         1.149e-04       0.118   1.149e-04      -3.940
	Hfo_wO-           1.117e-04       0.115   1.117e-04      -3.952
	Hfo_wOCa+         8.324e-10       0.000   8.324e-10      -9.080

Sua           
	 -8.765e-18  Surface + diffuse layer charge, eq
	  0.000e+00  Surface charge, eq
	  0.000e+00  sigma, C/m**2
	  1.167e-15  psi, V
	 -4.542e-14  -F*psi/RT
	  1.000e+00  exp(-F*psi/RT)
	  1.000e+04  specific area, m**2/g
	  1.000e+04  m**2 for   1.000e+00 g

	Water in diffuse layer: 1.000000e-05 kg.   Thickness: 1.000000e-12 m.

	Total moles in diffuse layer (excluding water), Donnan calculation 

	Element       	     Moles
	Ca            	  9.9801e-12
	Cl            	  1.0010e-08
	H             	  2.0910e-12
	Na            	  9.9900e-09
	O             	  1.0484e-12

Sua           
	  1.000e-03  moles
	                                   Mole                     Log
	Species               Moles    Fraction    Molality    Molality

	Sua               1.000e-03       1.000   1.000e-03      -3.000

Sub           
	 -8.765e-18  Surface + diffuse layer charge, eq
	  0.000e+00  Surface charge, eq
	  0.000e+00  sigma, C/m**2
	  1.167e-15  psi, V
	 -4.542e-14  -F*psi/RT
	  1.000e+00  exp(-F*psi/RT)
	  1.000e+04  specific area, m**2/g
	  1.000e+04  m**2 for   1.000e+00 g

	Water in diffuse layer: 1.000000e-05 kg.   Thickness: 1.000000e-12 m.

	Total moles in diffuse layer (excluding water), Donnan calculation 

	Element       	     Moles
	Ca            	  9.9801e-12
	Cl            	  1.0010e-08
	H             	  2.0910e-12
	Na            	  9.9900e-09
	O             	  1.0484e-12

Sub           
	  1.000e-03  moles
	                                   Mole                     Log
	Species               Moles    Fraction    Molality    Molality

	Sub               1.000e-03       1.000   1.000e-03      -3.000

----------------------------------User print-----------------------------------

Adapting surface in            2 

----------------------------------User print-----------------------------------

Adapting surface in            3 

----------------------------------User print-----------------------------------

Adapting surface in            1 

------------------------------Surface composition------------------------------

Hfo           
	 -2.270e-12  Surface + diffuse layer charge, eq
	  3.338e-06  Surface charge, eq
	  6.101e-03  sigma, C/m**2
	  6.530e-02  psi, V
	 -2.542e+00  -F*psi/RT
	  7.874e-02  exp(-F*psi/RT)
	  6.000e+02  specific area, m**2/g
	  5.280e+01  m**2 for   8.800e-02 g

	Water in diffuse layer: 5.280000e-08 kg.   Thickness: 1.000000e-12 m.

	Total moles in diffuse layer (excluding water), Donnan calculation 

	Element       	     Moles
	Ca            	  1.4647e-23
	Cl            	  3.3380e-06
	H             	  3.4634e-10
	Na            	  8.3866e-16
	O             	  3.4634e-10

Hfo_s         
	  2.500e-05  moles
	                                   Mole                     Log
	Species               Moles    Fraction    Molality    Molality

	Hfo_sOH           1.918e-05       0.767   1.918e-05      -4.717
	Hfo_sOH2+         2.945e-06       0.118   2.945e-06      -5.531
	Hfo_sO-           2.862e-06       0.114   2.862e-06      -5.543
	Hfo_sOHCa+2       1.110e-08       0.000   1.110e-08      -7.955

Hfo_w         
	  9.750e-04  moles
	                                   Mole                     Log
	Species               Moles    Fraction    Molality    Molality

	Hfo_wOH           7.484e-04       0.768   7.484e-04      -3.126
	Hfo_wOH2+         1.149e-04       0.118   1.149e-04      -3.940
	Hfo_wO-           1.117e-04       0.115   1.117e-04      -3.952
	Hfo_wOCa+         8.324e-10       0.000   8.324e-10      -9.080

Sua           
	 -1.617e-17  Surface + diffuse layer charge, eq
	  0.000e+00  Surface charge, eq
	  0.000e+00  sigma, C/m**2
	  2.138e-15  psi, V
	 -8.320e-14  -F*psi/RT
	  1.000e+00  exp(-F*psi/RT)
	  1.000e+04  specific area, m**2/g
	  1.000e+04  m**2 for   1.000e+00 g

	Water in diffuse layer: 1.000000e-05 kg.   Thickness: 1.000000e-12 m.

	Total moles in diffuse layer (excluding water), Donnan calculation 

	Element       	     Moles
	Ca            	  9.9801e-12
	Cl            	  1.0010e-08
	H             	  2.0910e-12
	Na            	  9.9900e-09
	O             	  1.0484e-12

Sua           
	  1.000e-03  moles
	                                   Mole                     Log
	Species               Moles    Fraction    Molality    Molality

	Sua               1.000e-03       1.000   1.000e-03      -3.000

Sub           
	 -1.617e-17  Surface + diffuse layer charge, eq
	  0.000e+00  Surface charge, eq
	  0.000e+00  sigma, C/m**2
	  2.138e-15  psi, V
	 -8.320e-14  -F*psi/RT
	  1.000e+00  exp(-F*psi/RT)
	  1.000e+04  specific area, m**2/g
	  1.000e+04  m**2 for   1.000e+00 g

	Water in diffuse layer: 1.000000e-05 kg.   Thickness: 1.000000e-12 m.

	Total moles in diffuse layer (excluding water), Donnan calculation 

	Element       	     Moles
	Ca            	  9.9801e-12
	Cl            	  1.0010e-08
	H             	  2.0910e-12
	Na            	  9.9900e-09
	O             	  1.0484e-12

Sub           
	  1.000e-03  moles
	                                   Mole                     Log
	Species               Moles    Fraction    Molality    Molality

	Sub               1.000e-03       1.000   1.000e-03      -3.000

Sorbedhfo     
	 -1.135e-12  Surface + diffuse layer charge, eq
	  1.669e-06  Surface charge, eq
	  6.101e-03  sigma, C/m**2
	  6.530e-02  psi, V
	 -2.542e+00  -F*psi/RT
	  7.874e-02  exp(-F*psi/RT)
	  6.000e+02  specific area, m**2/g
	  2.640e+01  m**2 for   4.400e-02 g

	Water in diffuse layer: 2.640000e-08 kg.   Thickness: 1.000000e-12 m.

	Total moles in diffuse layer (excluding water), Donnan calculation 

	Element       	     Moles
	Ca            	  7.3234e-24
	Cl            	  1.6690e-06
	H             	  1.7317e-10
	Na            	  4.1933e-16
	O             	  1.7317e-10

Sorbedhfo_s   
	  1.250e-05  moles
	                                   Mole                     Log
	Species               Moles    Fraction    Molality    Molality

	Sorbedhfo_sOH     9.591e-06       0.767   9.591e-06      -5.018
	Sorbedhfo_sOH2+   1.472e-06       0.118   1.472e-06      -5.832
	Sorbedhfo_sO-     1.431e-06       0.114   1.431e-06      -5.844
	Sorbedhfo_sOHCa+2   5.549e-09       0.000   5.549e-09      -8.256

Sorbedhfo_w   
	  4.875e-04  moles
	                                   Mole                     Log
	Species               Moles    Fraction    Molality    Molality

	Sorbedhfo_wOH     3.742e-04       0.768   3.742e-04      -3.427
	Sorbedhfo_wOH2+   5.745e-05       0.118   5.745e-05      -4.241
	Sorbedhfo_wO-     5.584e-05       0.115   5.584e-05      -4.253
	Sorbedhfo_wOCa+   4.162e-10       0.000   4.162e-10      -9.381

----------------------------------User print-----------------------------------

Adapting surface in            2 

------------------------------Surface composition------------------------------

Sua           
	 -3.203e-18  Surface + diffuse layer charge, eq
	  0.000e+00  Surface charge, eq
	  0.000e+00  sigma, C/m**2
	  4.275e-16  psi, V
	 -1.664e-14  -F*psi/RT
	  1.000e+00  exp(-F*psi/RT)
	  1.000e+04  specific area, m**2/g
	  1.000e+04  m**2 for   1.000e+00 g

	Water in diffuse layer: 1.000000e-05 kg.   Thickness: 1.000000e-12 m.

	Total moles in diffuse layer (excluding water), Donnan calculation 

	Element       	     Moles
	Ca            	  9.9801e-12
	Cl            	  1.0010e-08
	H             	  2.0911e-12
	Na            	  9.9900e-09
	O             	  1.0484e-12

Sua           
	  1.000e-03  moles
	                                   Mole                     Log
	Species               Moles    Fraction    Molality    Molality

	Sua               1.000e-03       1.000   1.000e-03      -3.000

Sub           
	 -3.203e-18  Surface + diffuse layer charge, eq
	  0.000e+00  Surface charge, eq
	  0.000e+00  sigma, C/m**2
	  4.275e-16  psi, V
	 -1.664e-14  -F*psi/RT
	  1.000e+00  exp(-F*psi/RT)
	  1.000e+04  specific area, m**2/g
	  1.000e+04  m**2 for   1.000e+00 g

	Water in diffuse layer: 1.000000e-05 kg.   Thickness: 1.000000e-12 m.

	Total moles in diffuse layer (excluding water), Donnan calculation 

	Element       	     Moles
	Ca            	  9.9801e-12
	Cl            	  1.0010e-08
	H             	  2.0911e-12
	Na            	  9.9900e-09
	O             	  1.0484e-12

Sub           
	  1.000e-03  moles
	                                   Mole                     Log
	Species               Moles    Fraction    Molality    Molality

	Sub               1.000e-03       1.000   1.000e-03      -3.000

Hfo           
	 -2.450e-13  Surface + diffuse layer charge, eq
	  1.669e-06  Surface charge, eq
	  6.101e-03  sigma, C/m**2
	  6.530e-02  psi, V
	 -2.542e+00  -F*psi/RT
	  7.874e-02  exp(-F*psi/RT)
	  6.000e+02  specific area, m**2/g
	  2.640e+01  m**2 for   4.400e-02 g

	Water in diffuse layer: 2.640000e-08 kg.   Thickness: 1.000000e-12 m.

	Total moles in diffuse layer (excluding water), Donnan calculation 

	Element       	     Moles
	Ca            	  7.3234e-24
	Cl            	  1.6690e-06
	H             	  1.7317e-10
	Na            	  4.1933e-16
	O             	  1.7317e-10

Hfo_s         
	  1.250e-05  moles
	                                   Mole                     Log
	Species               Moles    Fraction    Molality    Molality

	Hfo_sOH           9.591e-06       0.767   9.591e-06      -5.018
	Hfo_sOH2+         1.472e-06       0.118   1.472e-06      -5.832
	Hfo_sO-           1.431e-06       0.114   1.431e-06      -5.844
	Hfo_sOHCa+2       5.549e-09       0.000   5.549e-09      -8.256

Hfo_w         
	  4.875e-04  moles
	                                   Mole                     Log
	Species               Moles    Fraction    Molality    Molality

	Hfo_wOH           3.742e-04       0.768   3.742e-04      -3.427
	Hfo_wOH2+         5.745e-05       0.118   5.745e-05      -4.241
	Hfo_wO-           5.584e-05       0.115   5.584e-05      -4.253
	Hfo_wOCa+         4.162e-10       0.000   4.162e-10      -9.381

----------------------------------User print-----------------------------------

Adapting surface in            3 

----------------------------------User print-----------------------------------

Adapting surface in            1 

------------------------------Surface composition------------------------------

Hfo           
	 -3.481e-12  Surface + diffuse layer charge, eq
	  3.338e-06  Surface charge, eq
	  6.101e-03  sigma, C/m**2
	  6.530e-02  psi, V
	 -2.542e+00  -F*psi/RT
	  7.874e-02  exp(-F*psi/RT)
	  6.000e+02  specific area, m**2/g
	  5.280e+01  m**2 for   8.800e-02 g

	Water in diffuse layer: 5.280000e-08 kg.   Thickness: 1.000000e-12 m.

	Total moles in diffuse layer (excluding water), Donnan calculation 

	Element       	     Moles
	Ca            	  1.4647e-23
	Cl            	  3.3380e-06
	H             	  3.4634e-10
	Na            	  8.3866e-16
	O             	  3.4634e-10

Hfo_s         
	  2.500e-05  moles
	                                   Mole                     Log
	Species               Moles    Fraction    Molality    Molality

	Hfo_sOH           1.918e-05       0.767   1.918e-05      -4.717
	Hfo_sOH2+         2.945e-06       0.118   2.945e-06      -5.531
	Hfo_sO-           2.862e-06       0.114   2.862e-06      -5.543
	Hfo_sOHCa+2       1.110e-08       0.000   1.110e-08      -7.955

Hfo_w         
	  9.750e-04  moles
	                                   Mole                     Log
	Species               Moles    Fraction    Molality    Molality

	Hfo_wOH           7.484e-04       0.768   7.484e-04      -3.126
	Hfo_wOH2+         1.149e-04       0.118   1.149e-04      -3.940
	Hfo_wO-           1.117e-04       0.115   1.117e-04      -3.952
	Hfo_wOCa+         8.324e-10       0.000   8.324e-10      -9.080

Sua           
	 -2.522e-17  Surface + diffuse layer charge, eq
	  0.000e+00  Surface charge, eq
	  0.000e+00  sigma, C/m**2
	  3.293e-15  psi, V
	 -1.282e-13  -F*psi/RT
	  1.000e+00  exp(-F*psi/RT)
	  1.000e+04  specific area, m**2/g
	  1.000e+04  m**2 for   1.000e+00 g

	Water in diffuse layer: 1.000000e-05 kg.   Thickness: 1.000000e-12 m.

	Total moles in diffuse layer (excluding water), Donnan calculation 

	Element       	     Moles
	Ca            	  9.9801e-12
	Cl            	  1.0010e-08
	H             	  2.0910e-12
	Na            	  9.9900e-09
	O             	  1.0484e-12

Sua           
	  1.000e-03  moles
	                                   Mole                     Log
	Species               Moles    Fraction    Molality    Molality

	Sua               1.000e-03       1.000   1.000e-03      -3.000

Sub           
	 -2.522e-17  Surface + diffuse layer charge, eq
	  0.000e+00  Surface charge, eq
	  0.000e+00  sigma, C/m**2
	  3.293e-15  psi, V
	 -1.282e-13  -F*psi/RT
	  1.000e+00  exp(-F*psi/RT)
	  1.000e+04  specific area, m**2/g
	  1.000e+04  m**2 for   1.000e+00 g

	Water in diffuse layer: 1.000000e-05 kg.   Thickness: 1.000000e-12 m.

	Total moles in diffuse layer (excluding water), Donnan calculation 

	Element       	     Moles
	Ca            	  9.9801e-12
	Cl            	  1.0010e-08
	H             	  2.0910e-12
	Na            	  9.9900e-09
	O             	  1.0484e-12

Sub           
	  1.000e-03  moles
	                                   Mole                     Log
	Species               Moles    Fraction    Molality    Molality

	Sub               1.000e-03       1.000   1.000e-03      -3.000

Sorbedhfo     
	 -3.481e-12  Surface + diffuse layer charge, eq
	  3.338e-06  Surface charge, eq
	  6.101e-03  sigma, C/m**2
	  6.530e-02  psi, V
	 -2.542e+00  -F*psi/RT
	  7.874e-02  exp(-F*psi/RT)
	  6.000e+02  specific area, m**2/g
	  5.280e+01  m**2 for   8.800e-02 g

	Water in diffuse layer: 5.280000e-08 kg.   Thickness: 1.000000e-12 m.

	Total moles in diffuse layer (excluding water), Donnan calculation 

	Element       	     Moles
	Ca            	  1.4647e-23
	Cl            	  3.3380e-06
	H             	  3.4634e-10
	Na            	  8.3866e-16
	O             	  3.4634e-10

Sorbedhfo_s   
	  2.500e-05  moles
	                                   Mole                     Log
	Species               Moles    Fraction    Molality    Molality

	Sorbedhfo_sOH     1.918e-05       0.767   1.918e-05      -4.717
	Sorbedhfo_sOH2+   2.945e-06       0.118   2.945e-06      -5.531
	Sorbedhfo_sO-     2.862e-06       0.114   2.862e-06      -5.543
	Sorbedhfo_sOHCa+2   1.110e-08       0.000   1.110e-08      -7.955

Sorbedhfo_w   
	  9.750e-04  moles
	                                   Mole                     Log
	Species               Moles    Fraction    Molality    Molality

	Sorbedhfo_wOH     7.484e-04       0.768   7.484e-04      -3.126
	Sorbedhfo_wOH2+   1.149e-04       0.118   1.149e-04      -3.940
	Sorbedhfo_wO-     1.117e-04       0.115   1.117e-04      -3.952
	Sorbedhfo_wOCa+   8.324e-10       0.000   8.324e-10      -9.080

----------------------------------User print-----------------------------------

Adapting surface in            2 

------------------------------Surface composition------------------------------

Hfo           
	 -4.261e-13  Surface + diffuse layer charge, eq
	  1.669e-06  Surface charge, eq
	  6.101e-03  sigma, C/m**2
	  6.530e-02  psi, V
	 -2.542e+00  -F*psi/RT
	  7.874e-02  exp(-F*psi/RT)
	  6.000e+02  specific area, m**2/g
	  2.640e+01  m**2 for   4.400e-02 g

	Water in diffuse layer: 2.640000e-08 kg.   Thickness: 1.000000e-12 m.

	Total moles in diffuse layer (excluding water), Donnan calculation 

	Element       	     Moles
	Ca            	  7.3234e-24
	Cl            	  1.6690e-06
	H             	  1.7317e-10
	Na            	  4.1933e-16
	O             	  1.7317e-10

Hfo_s         
	  1.250e-05  moles
	                                   Mole                     Log
	Species               Moles    Fraction    Molality    Molality

	Hfo_sOH           9.591e-06       0.767   9.591e-06      -5.018
	Hfo_sOH2+         1.472e-06       0.118   1.472e-06      -5.832
	Hfo_sO-           1.431e-06       0.114   1.431e-06      -5.844
	Hfo_sOHCa+2       5.549e-09       0.000   5.549e-09      -8.256

Hfo_w         
	  4.875e-04  moles
	                                   Mole                     Log
	Species               Moles    Fraction    Molality    Molality

	Hfo_wOH           3.742e-04       0.768   3.742e-04      -3.427
	Hfo_wOH2+         5.745e-05       0.118   5.745e-05      -4.241
	Hfo_wO-           5.584e-05       0.115   5.584e-05      -4.253
	Hfo_wOCa+         4.162e-10       0.000   4.162e-10      -9.381

Sua           
	 -5.742e-18  Surface + diffuse layer charge, eq
	  0.000e+00  Surface charge, eq
	  0.000e+00  sigma, C/m**2
	  7.656e-16  psi, V
	 -2.980e-14  -F*psi/RT
	  1.000e+00  exp(-F*psi/RT)
	  1.000e+04  specific area, m**2/g
	  1.000e+04  m**2 for   1.000e+00 g

	Water in diffuse layer: 1.000000e-05 kg.   Thickness: 1.000000e-12 m.

	Total moles in diffuse layer (excluding water), Donnan calculation 

	Element       	     Moles
	Ca            	  9.9801e-12
	Cl            	  1.0010e-08
	H             	  2.0911e-12
	Na            	  9.9900e-09
	O             	  1.0484e-12

Sua           
	  1.000e-03  moles
	                                   Mole                     Log
	Species               Moles    Fraction    Molality    Molality

	Sua               1.000e-03       1.000   1.000e-03      -3.000

Sub           
	 -5.742e-18  Surface + diffuse layer charge, eq
	  0.000e+00  Surface charge, eq
	  0.000e+00  sigma, C/m**2
	  7.656e-16  psi, V
	 -2.980e-14  -F*psi/RT
	  1.000e+00  exp(-F*psi/RT)
	  1.000e+04  specific area, m**2/g
	  1.000e+04  m**2 for   1.000e+00 g

	Water in diffuse layer: 1.000000e-05 kg.   Thickness: 1.000000e-12 m.

	Total moles in diffuse layer (excluding water), Donnan calculation 

	Element       	     Moles
	Ca            	  9.9801e-12
	Cl            	  1.0010e-08
	H             	  2.0911e-12
	Na            	  9.9900e-09
	O             	  1.0484e-12

Sub           
	  1.000e-03  moles
	                                   Mole                     Log
	Species               Moles    Fraction    Molality    Molality

	Sub               1.000e-03       1.000   1.000e-03      -3.000

Sorbedhfo     
	 -2.131e-13  Surface + diffuse layer charge, eq
	  8.346e-07  Surface charge, eq
	  6.101e-03  sigma, C/m**2
	  6.530e-02  psi, V
	 -2.542e+00  -F*psi/RT
	  7.874e-02  exp(-F*psi/RT)
	  6.000e+02  specific area, m**2/g
	  1.320e+01  m**2 for   2.200e-02 g

	Water in diffuse layer: 1.320000e-08 kg.   Thickness: 1.000000e-12 m.

	Total moles in diffuse layer (excluding water), Donnan calculation 

	Element       	     Moles
	Ca            	  3.6617e-24
	Cl            	  8.3451e-07
	H             	  8.6585e-11
	Na            	  2.0967e-16
	O             	  8.6585e-11

Sorbedhfo_s   
	  6.250e-06  moles
	                                   Mole                     Log
	Species               Moles    Fraction    Molality    Molality

	Sorbedhfo_sOH     4.795e-06       0.767   4.795e-06      -5.319
	Sorbedhfo_sOH2+   7.362e-07       0.118   7.362e-07      -6.133
	Sorbedhfo_sO-     7.155e-07       0.114   7.155e-07      -6.145
	Sorbedhfo_sOHCa+2   2.775e-09       0.000   2.775e-09      -8.557

Sorbedhfo_w   
	  2.438e-04  moles
	                                   Mole                     Log
	Species               Moles    Fraction    Molality    Molality

	Sorbedhfo_wOH     1.871e-04       0.768   1.871e-04      -3.728
	Sorbedhfo_wOH2+   2.873e-05       0.118   2.873e-05      -4.542
	Sorbedhfo_wO-     2.792e-05       0.115   2.792e-05      -4.554
	Sorbedhfo_wOCa+   2.081e-10       0.000   2.081e-10      -9.682

----------------------------------User print-----------------------------------

Adapting surface in            3 

------------------------------Surface composition------------------------------

Sua           
	 -8.832e-19  Surface + diffuse layer charge, eq
	  0.000e+00  Surface charge, eq
	  0.000e+00  sigma, C/m**2
	  2.768e-16  psi, V
	 -1.077e-14  -F*psi/RT
	  1.000e+00  exp(-F*psi/RT)
	  1.000e+04  specific area, m**2/g
	  1.000e+04  m**2 for   1.000e+00 g

	Water in diffuse layer: 1.000000e-05 kg.   Thickness: 1.000000e-12 m.

	Total moles in diffuse layer (excluding water), Donnan calculation 

	Element       	     Moles
	Ca            	  9.9801e-12
	Cl            	  1.0010e-08
	H             	  2.0911e-12
	Na            	  9.9900e-09
	O             	  1.0484e-12

Sua           
	  1.000e-03  moles
	                                   Mole                     Log
	Species               Moles    Fraction    Molality    Molality

	Sua               1.000e-03       1.000   1.000e-03      -3.000

Sub           
	 -8.832e-19  Surface + diffuse layer charge, eq
	  0.000e+00  Surface charge, eq
	  0.000e+00  sigma, C/m**2
	  2.768e-16  psi, V
	 -1.077e-14  -F*psi/RT
	  1.000e+00  exp(-F*psi/RT)
	  1.000e+04  specific area, m**2/g
	  1.000e+04  m**2 for   1.000e+00 g

	Water in diffuse layer: 1.000000e-05 kg.   Thickness: 1.000000e-12 m.

	Total moles in diffuse layer (excluding water), Donnan calculation 

	Element       	     Moles
	Ca            	  9.9801e-12
	Cl            	  1.0010e-08
	H             	  2.0911e-12
	Na            	  9.9900e-09
	O             	  1.0484e-12

Sub           
	  1.000e-03  moles
	                                   Mole                     Log
	Species               Moles    Fraction    Molality    Molality

	Sub               1.000e-03       1.000   1.000e-03      -3.000

Hfo           
	 -1.086e-15  Surface + diffuse layer charge, eq
	  8.346e-07  Surface charge, eq
	  6.101e-03  sigma, C/m**2
	  6.530e-02  psi, V
	 -2.542e+00  -F*psi/RT
	  7.874e-02  exp(-F*psi/RT)
	  6.000e+02  specific area, m**2/g
	  1.320e+01  m**2 for   2.200e-02 g

	Water in diffuse layer: 1.320000e-08 kg.   Thickness: 1.000000e-12 m.

	Total moles in diffuse layer (excluding water), Donnan calculation 

	Element       	     Moles
	Ca            	  3.6617e-24
	Cl            	  8.3451e-07
	H             	  8.6585e-11
	Na            	  2.0967e-16
	O             	  8.6585e-11

Hfo_s         
	  6.250e-06  moles
	                                   Mole                     Log
	Species               Moles    Fraction    Molality    Molality

	Hfo_sOH           4.795e-06       0.767   4.795e-06      -5.319
	Hfo_sOH2+         7.362e-07       0.118   7.362e-07      -6.133
	Hfo_sO-           7.155e-07       0.114   7.155e-07      -6.145
	Hfo_sOHCa+2       2.775e-09       0.000   2.775e-09      -8.557

Hfo_w         
	  2.438e-04  moles
	                                   Mole                     Log
	Species               Moles    Fraction    Molality    Molality

	Hfo_wOH           1.871e-04       0.768   1.871e-04      -3.728
	Hfo_wOH2+         2.873e-05       0.118   2.873e-05      -4.542
	Hfo_wO-           2.792e-05       0.115   2.792e-05      -4.554
	Hfo_wOCa+         2.081e-10       0.000   2.081e-10      -9.682

No memory leaks
