   Input file: sc6
  Output file: sc6.out
Database file: ../database/phreeqc.dat

------------------
Reading data base.
------------------

	SOLUTION_MASTER_SPECIES
	SOLUTION_SPECIES
	PHASES
	EXCHANGE_MASTER_SPECIES
	EXCHANGE_SPECIES
	SURFACE_MASTER_SPECIES
	SURFACE_SPECIES
	RATES
	END
------------------------------------
Reading input data for simulation 1.
------------------------------------

	DATABASE ../database/phreeqc.dat
	SOLUTION_SPECIES
	 Na+ = Na+
	 log_k 0
	 gamma 1e10 0
	 Ca+2 = Ca+2
	 log_k 0
	 gamma 1e10 0
	 Cl- = Cl-
	 log_k 0
	 gamma 1e10 0
	 H2O + 0.01e- = H2O-0.01
	 log_k -9
	SURFACE_MASTER_SPECIES
	 Sua Sua
	 Sub Sub
	 Suc Suc
	SURFACE_SPECIES
	 Sua = Sua
	 log_k 0
	 Sub = Sub
	 log_k 0
	 Suc = Suc
	 log_k 0
	SURFACE_MASTER_SPECIES /* defined sorbed form of Hfo = Sorbedhfo */
	 Sorbedhfo_s Sorbedhfo_sOH
	 Sorbedhfo_w Sorbedhfo_wOH
	SURFACE_SPECIES
	 Sorbedhfo_sOH = Sorbedhfo_sOH
	 log_k 0.0
	 Sorbedhfo_sOH + H+ = Sorbedhfo_sOH2+
	 log_k 7.29
	 Sorbedhfo_sOH = Sorbedhfo_sO- + H+
	 log_k -8.93
	 Sorbedhfo_wOH = Sorbedhfo_wOH
	 log_k 0.0
	 Sorbedhfo_wOH + H+ = Sorbedhfo_wOH2+
	 log_k 7.29
	 Sorbedhfo_wOH = Sorbedhfo_wO- + H+
	 log_k -8.93
	 Sorbedhfo_sOH + Ca+2 = Sorbedhfo_sOHCa+2
	 log_k 4.97
	 Sorbedhfo_wOH + Ca+2 = Sorbedhfo_wOCa+ + H+
	 log_k -5.85
	 Sorbedhfo_sOH + Zn+2 = Sorbedhfo_sOZn+ + H+
	 log_k 0.99
	 Sorbedhfo_wOH + Zn+2 = Sorbedhfo_wOZn+ + H+
	 log_k -1.99
	SOLUTION 0-21
	END          
-------------------------------------------
Beginning of initial solution calculations.
-------------------------------------------

Initial solution 0.	

-----------------------------Solution composition------------------------------

	Elements           Molality       Moles

	Pure water     

----------------------------Description of solution----------------------------

                                       pH  =   7.000    
                                       pe  =   4.000    
       Specific Conductance (uS/cm, 25 oC) = 0
                          Density (g/cm3)  =   0.99705
                        Activity of water  =   1.000
                           Ionic strength  =   1.001e-07
                       Mass of water (kg)  =   1.000e+00
                 Total alkalinity (eq/kg)  =   1.082e-10
                    Total carbon (mol/kg)  =   0.000e+00
                       Total CO2 (mol/kg)  =   0.000e+00
                      Temperature (deg C)  =  25.000
                  Electrical balance (eq)  =  -1.173e-10
 Percent error, 100*(Cat-|An|)/(Cat+|An|)  =  -0.06
                               Iterations  =   0
                                  Total H  = 1.110124e+02
                                  Total O  = 5.550622e+01

----------------------------Distribution of species----------------------------

                                                   Log       Log         Log 
   Species                 Molality    Activity  Molality  Activity     Gamma

   OH-                    1.002e-07   1.001e-07    -6.999    -6.999    -0.000
   H+                     1.001e-07   1.000e-07    -7.000    -7.000    -0.000
   H2O-0.01               9.120e-10   9.120e-10    -9.040    -9.040    -0.000
   H2O                    5.551e+01   1.000e+00     1.744     0.000     0.000
H(0)             1.416e-25
   H2                     7.079e-26   7.079e-26   -25.150   -25.150     0.000
O(0)             0.000e+00
   O2                     0.000e+00   0.000e+00   -42.080   -42.080     0.000

------------------------------Saturation indices-------------------------------

	Phase               SI log IAP  log KT

	H2(g)           -22.00  -25.15   -3.15  H2
	H2O(g)           -1.51    0.00    1.51  H2O
	O2(g)           -39.19  -42.08   -2.89  O2

------------------
End of simulation.
------------------

------------------------------------
Reading input data for simulation 2.
------------------------------------

	SOLUTION 0
	 Na 1
	 Ca 1e-3
	 Cl 1
	SURFACE 0
	 Sua 1e-3 1e4 1 Dw 1e-9
	 donnan 1e-12 #d 1 l 0.99 v 1# 1e-9
	 Sub 1e-3 1e4 1 Dw 1e-12
	 donnan 1e-12 #d 1 l 0.99 v 1# 1e-9
	 Hfo_w 97.5e-5 600 88e-3 Dw 1e-12
	 Hfo_s 2.5e-5
	 donnan 1e-12 #d 1 l 0.99 v 1# 1e-9
	 equilibrate 0
	END
-------------------------------------------
Beginning of initial solution calculations.
-------------------------------------------

Initial solution 0.	

-----------------------------Solution composition------------------------------

	Elements           Molality       Moles

	Ca                1.000e-06   1.000e-06
	Cl                1.000e-03   1.000e-03
	Na                1.000e-03   1.000e-03

----------------------------Description of solution----------------------------

                                       pH  =   7.000    
                                       pe  =   4.000    
       Specific Conductance (uS/cm, 25 oC) = 0
                          Density (g/cm3)  =   0.99705
                        Activity of water  =   1.000
                           Ionic strength  =   1.002e-03
                       Mass of water (kg)  =   1.000e+00
                 Total alkalinity (eq/kg)  =   3.702e-10
                    Total carbon (mol/kg)  =   0.000e+00
                       Total CO2 (mol/kg)  =   0.000e+00
                      Temperature (deg C)  =  25.000
                  Electrical balance (eq)  =   2.000e-06
 Percent error, 100*(Cat-|An|)/(Cat+|An|)  =   0.10
                               Iterations  =   1
                                  Total H  = 1.110124e+02
                                  Total O  = 5.550622e+01

----------------------------Distribution of species----------------------------

                                                   Log       Log         Log 
   Species                 Molality    Activity  Molality  Activity     Gamma

   OH-                    1.038e-07   1.001e-07    -6.984    -7.000    -0.016
   H+                     1.035e-07   1.000e-07    -6.985    -7.000    -0.015
   H2O-0.01               9.120e-10   9.120e-10    -9.040    -9.040    -0.000
   H2O                    5.551e+01   1.000e+00     1.744    -0.000     0.000
Ca               1.000e-06
   Ca+2                   1.000e-06   1.000e-06    -6.000    -6.000    -0.000
   CaOH+                  1.720e-12   1.660e-12   -11.765   -11.780    -0.015
Cl               1.000e-03
   Cl-                    1.000e-03   1.000e-03    -3.000    -3.000    -0.000
H(0)             1.416e-25
   H2                     7.078e-26   7.079e-26   -25.150   -25.150     0.000
Na               1.000e-03
   Na+                    1.000e-03   1.000e-03    -3.000    -3.000    -0.000
   NaOH                   6.605e-11   6.607e-11   -10.180   -10.180     0.000
O(0)             0.000e+00
   O2                     0.000e+00   0.000e+00   -42.080   -42.080     0.000

------------------------------Saturation indices-------------------------------

	Phase               SI log IAP  log KT

	H2(g)           -22.00  -25.15   -3.15  H2
	H2O(g)           -1.51   -0.00    1.51  H2O
	Halite           -7.58   -6.00    1.58  NaCl
	O2(g)           -39.19  -42.08   -2.89  O2

------------------------------------------------------
Beginning of initial surface-composition calculations.
------------------------------------------------------

Surface 0.	

Hfo           
	  8.567e-18  Surface + diffuse layer charge, eq
	  3.338e-06  Surface charge, eq
	  6.101e-03  sigma, C/m**2
	  6.530e-02  psi, V
	 -2.542e+00  -F*psi/RT
	  7.874e-02  exp(-F*psi/RT)
	  6.000e+02  specific area, m**2/g
	  5.280e+01  m**2 for   8.800e-02 g

	Water in diffuse layer: 5.280e-08 kg,  0.3% of total DDL-water.

	Total moles in diffuse layer (excluding water), Donnan calculation 

	Element       	     Moles
	Ca            	  1.4647e-23
	Cl            	  3.3380e-06
	H             	  3.4634e-10
	Na            	  8.3866e-16
	O             	  3.4634e-10

Hfo_s         
	  2.500e-05  moles
	                                   Mole                     Log
	Species               Moles    Fraction    Molality    Molality

	Hfo_sOH           1.918e-05       0.767   1.918e-05      -4.717
	Hfo_sOH2+         2.945e-06       0.118   2.945e-06      -5.531
	Hfo_sO-           2.862e-06       0.114   2.862e-06      -5.543
	Hfo_sOHCa+2       1.110e-08       0.000   1.110e-08      -7.955

Hfo_w         
	  9.750e-04  moles
	                                   Mole                     Log
	Species               Moles    Fraction    Molality    Molality

	Hfo_wOH           7.484e-04       0.768   7.484e-04      -3.126
	Hfo_wOH2+         1.149e-04       0.118   1.149e-04      -3.940
	Hfo_wO-           1.117e-04       0.115   1.117e-04      -3.952
	Hfo_wOCa+         8.324e-10       0.000   8.324e-10      -9.080

Sua           
	  1.639e-24  Surface + diffuse layer charge, eq
	  0.000e+00  Surface charge, eq
	  0.000e+00  sigma, C/m**2
	 -5.199e-22  psi, V
	  2.024e-20  -F*psi/RT
	  1.000e+00  exp(-F*psi/RT)
	  1.000e+04  specific area, m**2/g
	  1.000e+04  m**2 for   1.000e+00 g

	Water in diffuse layer: 1.000e-05 kg, 49.9% of total DDL-water.

	Total moles in diffuse layer (excluding water), Donnan calculation 

	Element       	     Moles
	Ca            	  9.9801e-12
	Cl            	  1.0010e-08
	H             	  2.0910e-12
	Na            	  9.9900e-09
	O             	  1.0484e-12

Sua           
	  1.000e-03  moles
	                                   Mole                     Log
	Species               Moles    Fraction    Molality    Molality

	Sua               1.000e-03       1.000   1.000e-03      -3.000

Sub           
	  1.639e-24  Surface + diffuse layer charge, eq
	  0.000e+00  Surface charge, eq
	  0.000e+00  sigma, C/m**2
	 -5.199e-22  psi, V
	  2.024e-20  -F*psi/RT
	  1.000e+00  exp(-F*psi/RT)
	  1.000e+04  specific area, m**2/g
	  1.000e+04  m**2 for   1.000e+00 g

	Water in diffuse layer: 1.000e-05 kg, 49.9% of total DDL-water.

	Total moles in diffuse layer (excluding water), Donnan calculation 

	Element       	     Moles
	Ca            	  9.9801e-12
	Cl            	  1.0010e-08
	H             	  2.0910e-12
	Na            	  9.9900e-09
	O             	  1.0484e-12

Sub           
	  1.000e-03  moles
	                                   Mole                     Log
	Species               Moles    Fraction    Molality    Molality

	Sub               1.000e-03       1.000   1.000e-03      -3.000

-----------------------------------------
Beginning of batch-reaction calculations.
-----------------------------------------

Reaction step 1.

Using solution 0.	
Using surface 0.	Surface assemblage after simulation 2.

------------------------------Surface composition------------------------------

Hfo           
	 -1.271e-12  Surface + diffuse layer charge, eq
	  3.338e-06  Surface charge, eq
	  6.101e-03  sigma, C/m**2
	  6.530e-02  psi, V
	 -2.542e+00  -F*psi/RT
	  7.874e-02  exp(-F*psi/RT)
	  6.000e+02  specific area, m**2/g
	  5.280e+01  m**2 for   8.800e-02 g

	Water in diffuse layer: 5.280e-08 kg,  0.3% of total DDL-water.

	Total moles in diffuse layer (excluding water), Donnan calculation 

	Element       	     Moles
	Ca            	  1.4647e-23
	Cl            	  3.3380e-06
	H             	  3.4634e-10
	Na            	  8.3866e-16
	O             	  3.4634e-10

Hfo_s         
	  2.500e-05  moles
	                                   Mole                     Log
	Species               Moles    Fraction    Molality    Molality

	Hfo_sOH           1.918e-05       0.767   1.918e-05      -4.717
	Hfo_sOH2+         2.945e-06       0.118   2.945e-06      -5.531
	Hfo_sO-           2.862e-06       0.114   2.862e-06      -5.543
	Hfo_sOHCa+2       1.110e-08       0.000   1.110e-08      -7.955

Hfo_w         
	  9.750e-04  moles
	                                   Mole                     Log
	Species               Moles    Fraction    Molality    Molality

	Hfo_wOH           7.484e-04       0.768   7.484e-04      -3.126
	Hfo_wOH2+         1.149e-04       0.118   1.149e-04      -3.940
	Hfo_wO-           1.117e-04       0.115   1.117e-04      -3.952
	Hfo_wOCa+         8.324e-10       0.000   8.324e-10      -9.080

Sua           
	 -8.765e-18  Surface + diffuse layer charge, eq
	  0.000e+00  Surface charge, eq
	  0.000e+00  sigma, C/m**2
	  1.167e-15  psi, V
	 -4.542e-14  -F*psi/RT
	  1.000e+00  exp(-F*psi/RT)
	  1.000e+04  specific area, m**2/g
	  1.000e+04  m**2 for   1.000e+00 g

	Water in diffuse layer: 1.000e-05 kg, 49.9% of total DDL-water.

	Total moles in diffuse layer (excluding water), Donnan calculation 

	Element       	     Moles
	Ca            	  9.9801e-12
	Cl            	  1.0010e-08
	H             	  2.0910e-12
	Na            	  9.9900e-09
	O             	  1.0484e-12

Sua           
	  1.000e-03  moles
	                                   Mole                     Log
	Species               Moles    Fraction    Molality    Molality

	Sua               1.000e-03       1.000   1.000e-03      -3.000

Sub           
	 -8.765e-18  Surface + diffuse layer charge, eq
	  0.000e+00  Surface charge, eq
	  0.000e+00  sigma, C/m**2
	  1.167e-15  psi, V
	 -4.542e-14  -F*psi/RT
	  1.000e+00  exp(-F*psi/RT)
	  1.000e+04  specific area, m**2/g
	  1.000e+04  m**2 for   1.000e+00 g

	Water in diffuse layer: 1.000e-05 kg, 49.9% of total DDL-water.

	Total moles in diffuse layer (excluding water), Donnan calculation 

	Element       	     Moles
	Ca            	  9.9801e-12
	Cl            	  1.0010e-08
	H             	  2.0910e-12
	Na            	  9.9900e-09
	O             	  1.0484e-12

Sub           
	  1.000e-03  moles
	                                   Mole                     Log
	Species               Moles    Fraction    Molality    Molality

	Sub               1.000e-03       1.000   1.000e-03      -3.000

-----------------------------Solution composition------------------------------

	Elements           Molality       Moles

	Ca                1.000e-06   1.000e-06
	Cl                1.000e-03   1.000e-03
	Na                1.000e-03   1.000e-03

----------------------------Description of solution----------------------------

                                       pH  =   7.000      Charge balance
                                       pe  =   3.981      Adjusted to redox equilibrium
       Specific Conductance (uS/cm, 25 oC) = 0
                          Density (g/cm3)  =   0.99705
                        Activity of water  =   1.000
                           Ionic strength  =   1.002e-03
                       Mass of water (kg)  =   1.000e+00
                 Total alkalinity (eq/kg)  =   3.701e-10
                    Total carbon (mol/kg)  =   0.000e+00
                       Total CO2 (mol/kg)  =   0.000e+00
                      Temperature (deg C)  =  25.000
                  Electrical balance (eq)  =   2.000e-06
 Percent error, 100*(Cat-|An|)/(Cat+|An|)  =   0.10
                               Iterations  =   0
                                  Total H  = 1.110124e+02
                                  Total O  = 5.550622e+01

----------------------------Distribution of species----------------------------

                                                   Log       Log         Log 
   Species                 Molality    Activity  Molality  Activity     Gamma

   OH-                    1.038e-07   1.001e-07    -6.984    -7.000    -0.016
   H+                     1.035e-07   1.000e-07    -6.985    -7.000    -0.015
   H2O-0.01               9.124e-10   9.124e-10    -9.040    -9.040    -0.000
   H2O                    5.551e+01   1.000e+00     1.744    -0.000     0.000
Ca               1.000e-06
   Ca+2                   1.000e-06   1.000e-06    -6.000    -6.000    -0.000
   CaOH+                  1.720e-12   1.660e-12   -11.765   -11.780    -0.015
Cl               1.000e-03
   Cl-                    1.000e-03   1.000e-03    -3.000    -3.000    -0.000
H(0)             1.545e-25
   H2                     7.724e-26   7.726e-26   -25.112   -25.112     0.000
Na               1.000e-03
   Na+                    1.000e-03   1.000e-03    -3.000    -3.000    -0.000
   NaOH                   6.605e-11   6.607e-11   -10.180   -10.180     0.000
O(0)             0.000e+00
   O2                     0.000e+00   0.000e+00   -42.156   -42.156     0.000

------------------------------Saturation indices-------------------------------

	Phase               SI log IAP  log KT

	H2(g)           -21.96  -25.11   -3.15  H2
	H2O(g)           -1.51   -0.00    1.51  H2O
	Halite           -7.58   -6.00    1.58  NaCl
	O2(g)           -39.26  -42.16   -2.89  O2

------------------
End of simulation.
------------------

------------------------------------
Reading input data for simulation 3.
------------------------------------

	PRINT
	 reset false
WARNING: Cell-lengths were read for 1 cells. Last value is used till cell 3.
WARNING: Dispersivities were read for 1 cells. Last value is used till cell 3.
----------------------------------User print-----------------------------------


----------------------------------User print-----------------------------------


----------------------------------User print-----------------------------------


----------------------------------User print-----------------------------------

Adapting surface in            1 

------------------------------Surface composition------------------------------

Hfo           
	 -1.270e-12  Surface + diffuse layer charge, eq
	  3.338e-06  Surface charge, eq
	  6.101e-03  sigma, C/m**2
	  6.530e-02  psi, V
	 -2.542e+00  -F*psi/RT
	  7.872e-02  exp(-F*psi/RT)
	  6.000e+02  specific area, m**2/g
	  5.280e+01  m**2 for   8.800e-02 g

	Water in diffuse layer: 5.280e-08 kg,  0.3% of total DDL-water.

	Total moles in diffuse layer (excluding water), Donnan calculation 

	Element       	     Moles
	Ca            	  1.4634e-23
	Cl            	  3.3380e-06
	H             	  3.4636e-10
	Na            	  8.3817e-16
	O             	  3.4636e-10

Hfo_s         
	  2.500e-05  moles
	                                   Mole                     Log
	Species               Moles    Fraction    Molality    Molality

	Hfo_sOH           1.918e-05       0.767   1.918e-05      -4.717
	Hfo_sOH2+         2.945e-06       0.118   2.945e-06      -5.531
	Hfo_sO-           2.862e-06       0.114   2.862e-06      -5.543
	Hfo_sOHCa+2       1.109e-08       0.000   1.109e-08      -7.955

Hfo_w         
	  9.750e-04  moles
	                                   Mole                     Log
	Species               Moles    Fraction    Molality    Molality

	Hfo_wOH           7.484e-04       0.768   7.484e-04      -3.126
	Hfo_wOH2+         1.149e-04       0.118   1.149e-04      -3.940
	Hfo_wO-           1.117e-04       0.115   1.117e-04      -3.952
	Hfo_wOCa+         8.318e-10       0.000   8.318e-10      -9.080

Sua           
	 -8.765e-18  Surface + diffuse layer charge, eq
	  0.000e+00  Surface charge, eq
	  0.000e+00  sigma, C/m**2
	  1.167e-15  psi, V
	 -4.543e-14  -F*psi/RT
	  1.000e+00  exp(-F*psi/RT)
	  1.000e+04  specific area, m**2/g
	  9.997e+03  m**2 for   9.997e-01 g

	Water in diffuse layer: 9.997e-06 kg, 49.9% of total DDL-water.

	Total moles in diffuse layer (excluding water), Donnan calculation 

	Element       	     Moles
	Ca            	  9.9742e-12
	Cl            	  1.0004e-08
	H             	  2.0904e-12
	Na            	  9.9840e-09
	O             	  1.0478e-12

Sua           
	  9.997e-04  moles
	                                   Mole                     Log
	Species               Moles    Fraction    Molality    Molality

	Sua               9.997e-04       1.000   9.997e-04      -3.000

Sub           
	 -8.768e-18  Surface + diffuse layer charge, eq
	  0.000e+00  Surface charge, eq
	  0.000e+00  sigma, C/m**2
	  1.167e-15  psi, V
	 -4.543e-14  -F*psi/RT
	  1.000e+00  exp(-F*psi/RT)
	  1.000e+04  specific area, m**2/g
	  1.000e+04  m**2 for   1.000e+00 g

	Water in diffuse layer: 1.000e-05 kg, 49.9% of total DDL-water.

	Total moles in diffuse layer (excluding water), Donnan calculation 

	Element       	     Moles
	Ca            	  9.9772e-12
	Cl            	  1.0007e-08
	H             	  2.0910e-12
	Na            	  9.9870e-09
	O             	  1.0481e-12

Sub           
	  1.000e-03  moles
	                                   Mole                     Log
	Species               Moles    Fraction    Molality    Molality

	Sub               1.000e-03       1.000   1.000e-03      -3.000

----------------------------------User print-----------------------------------

Adapting surface in            2 

------------------------------Surface composition------------------------------

Hfo           
	  2.592e-21  Surface + diffuse layer charge, eq
	  2.019e-14  Surface charge, eq
	  1.230e-04  sigma, C/m**2
	  6.566e-02  psi, V
	 -2.556e+00  -F*psi/RT
	  7.765e-02  exp(-F*psi/RT)
	  6.000e+02  specific area, m**2/g
	  1.584e-05  m**2 for   2.640e-08 g

	Water in diffuse layer: 1.584e-14 kg,  0.0% of total DDL-water.

	Total moles in diffuse layer (excluding water), Donnan calculation 

	Element       	     Moles
	Ca            	  2.9422e-36
	Cl            	  1.5141e-14
	H             	  5.0511e-15
	Na            	  1.8051e-27
	O             	  5.0511e-15

Hfo_s         
	  7.500e-12  moles
	                                   Mole                     Log
	Species               Moles    Fraction    Molality    Molality

	Hfo_sOH           5.757e-12       0.768   5.757e-12     -11.240
	Hfo_sOH2+         8.716e-13       0.116   8.716e-13     -12.060
	Hfo_sO-           8.711e-13       0.116   8.711e-13     -12.060
	Hfo_sOHCa+2       9.699e-19       0.000   9.699e-19     -18.013

Hfo_w         
	  2.925e-10  moles
	                                   Mole                     Log
	Species               Moles    Fraction    Molality    Molality

	Hfo_wOH           2.245e-10       0.768   2.245e-10      -9.649
	Hfo_wOH2+         3.399e-11       0.116   3.399e-11     -10.469
	Hfo_wO-           3.397e-11       0.116   3.397e-11     -10.469
	Hfo_wOCa+         7.373e-20       0.000   7.373e-20     -19.132

Sua           
	  9.861e-31  Surface + diffuse layer charge, eq
	  0.000e+00  Surface charge, eq
	  0.000e+00  sigma, C/m**2
	 -2.216e-23  psi, V
	  8.624e-22  -F*psi/RT
	  1.000e+00  exp(-F*psi/RT)
	  1.000e+04  specific area, m**2/g
	  3.000e+00  m**2 for   3.000e-04 g

	Water in diffuse layer: 3.000e-09 kg, 99.9% of total DDL-water.

	Total moles in diffuse layer (excluding water), Donnan calculation 

	Element       	     Moles
	Ca            	  8.9849e-19
	Cl            	  9.0078e-16
	H             	  6.0624e-16
	Na            	  8.9924e-16
	O             	  3.0324e-16

Sua           
	  3.000e-07  moles
	                                   Mole                     Log
	Species               Moles    Fraction    Molality    Molality

	Sua               3.000e-07       1.000   3.000e-07      -6.523

Sub           
	  6.741e-34  Surface + diffuse layer charge, eq
	  0.000e+00  Surface charge, eq
	  0.000e+00  sigma, C/m**2
	 -1.700e-23  psi, V
	  6.618e-22  -F*psi/RT
	  1.000e+00  exp(-F*psi/RT)
	  1.000e+04  specific area, m**2/g
	  3.000e-03  m**2 for   3.000e-07 g

	Water in diffuse layer: 3.000e-12 kg,  0.1% of total DDL-water.

	Total moles in diffuse layer (excluding water), Donnan calculation 

	Element       	     Moles
	Ca            	  8.9849e-22
	Cl            	  9.0078e-19
	H             	  6.0624e-19
	Na            	  8.9924e-19
	O             	  3.0324e-19

Sub           
	  3.000e-10  moles
	                                   Mole                     Log
	Species               Moles    Fraction    Molality    Molality

	Sub               3.000e-10       1.000   3.000e-10      -9.523

----------------------------------User print-----------------------------------

Adapting surface in            3 

----------------------------------User print-----------------------------------

Adapting surface in            1 

------------------------------Surface composition------------------------------

Hfo           
	 -2.270e-12  Surface + diffuse layer charge, eq
	  3.338e-06  Surface charge, eq
	  6.101e-03  sigma, C/m**2
	  6.530e-02  psi, V
	 -2.542e+00  -F*psi/RT
	  7.874e-02  exp(-F*psi/RT)
	  6.000e+02  specific area, m**2/g
	  5.280e+01  m**2 for   8.799e-02 g

	Water in diffuse layer: 5.280e-08 kg,  0.3% of total DDL-water.

	Total moles in diffuse layer (excluding water), Donnan calculation 

	Element       	     Moles
	Ca            	  1.4646e-23
	Cl            	  3.3378e-06
	H             	  3.4631e-10
	Na            	  8.3860e-16
	O             	  3.4631e-10

Hfo_s         
	  2.500e-05  moles
	                                   Mole                     Log
	Species               Moles    Fraction    Molality    Molality

	Hfo_sOH           1.918e-05       0.767   1.918e-05      -4.717
	Hfo_sOH2+         2.945e-06       0.118   2.945e-06      -5.531
	Hfo_sO-           2.862e-06       0.114   2.862e-06      -5.543
	Hfo_sOHCa+2       1.110e-08       0.000   1.110e-08      -7.955

Hfo_w         
	  9.749e-04  moles
	                                   Mole                     Log
	Species               Moles    Fraction    Molality    Molality

	Hfo_wOH           7.484e-04       0.768   7.484e-04      -3.126
	Hfo_wOH2+         1.149e-04       0.118   1.149e-04      -3.940
	Hfo_wO-           1.117e-04       0.115   1.117e-04      -3.952
	Hfo_wOCa+         8.324e-10       0.000   8.324e-10      -9.080

Sua           
	 -1.617e-17  Surface + diffuse layer charge, eq
	  0.000e+00  Surface charge, eq
	  0.000e+00  sigma, C/m**2
	  2.137e-15  psi, V
	 -8.320e-14  -F*psi/RT
	  1.000e+00  exp(-F*psi/RT)
	  1.000e+04  specific area, m**2/g
	  1.000e+04  m**2 for   1.000e+00 g

	Water in diffuse layer: 1.000e-05 kg, 49.8% of total DDL-water.

	Total moles in diffuse layer (excluding water), Donnan calculation 

	Element       	     Moles
	Ca            	  9.9800e-12
	Cl            	  1.0010e-08
	H             	  2.0910e-12
	Na            	  9.9900e-09
	O             	  1.0484e-12

Sua           
	  1.000e-03  moles
	                                   Mole                     Log
	Species               Moles    Fraction    Molality    Molality

	Sua               1.000e-03       1.000   1.000e-03      -3.000

Sub           
	 -1.617e-17  Surface + diffuse layer charge, eq
	  0.000e+00  Surface charge, eq
	  0.000e+00  sigma, C/m**2
	  2.137e-15  psi, V
	 -8.320e-14  -F*psi/RT
	  1.000e+00  exp(-F*psi/RT)
	  1.000e+04  specific area, m**2/g
	  1.000e+04  m**2 for   1.000e+00 g

	Water in diffuse layer: 1.000e-05 kg, 49.8% of total DDL-water.

	Total moles in diffuse layer (excluding water), Donnan calculation 

	Element       	     Moles
	Ca            	  9.9800e-12
	Cl            	  1.0010e-08
	H             	  2.0910e-12
	Na            	  9.9900e-09
	O             	  1.0484e-12

Sub           
	  1.000e-03  moles
	                                   Mole                     Log
	Species               Moles    Fraction    Molality    Molality

	Sub               1.000e-03       1.000   1.000e-03      -3.000

Sorbedhfo     
	 -1.135e-12  Surface + diffuse layer charge, eq
	  1.669e-06  Surface charge, eq
	  6.101e-03  sigma, C/m**2
	  6.530e-02  psi, V
	 -2.542e+00  -F*psi/RT
	  7.874e-02  exp(-F*psi/RT)
	  6.000e+02  specific area, m**2/g
	  2.640e+01  m**2 for   4.400e-02 g

	Water in diffuse layer: 2.640e-08 kg,  0.1% of total DDL-water.

	Total moles in diffuse layer (excluding water), Donnan calculation 

	Element       	     Moles
	Ca            	  7.3234e-24
	Cl            	  1.6690e-06
	H             	  1.7317e-10
	Na            	  4.1933e-16
	O             	  1.7317e-10

Sorbedhfo_s   
	  1.250e-05  moles
	                                   Mole                     Log
	Species               Moles    Fraction    Molality    Molality

	Sorbedhfo_sOH     9.591e-06       0.767   9.591e-06      -5.018
	Sorbedhfo_sOH2+   1.472e-06       0.118   1.472e-06      -5.832
	Sorbedhfo_sO-     1.431e-06       0.114   1.431e-06      -5.844
	Sorbedhfo_sOHCa+2   5.549e-09       0.000   5.549e-09      -8.256

Sorbedhfo_w   
	  4.875e-04  moles
	                                   Mole                     Log
	Species               Moles    Fraction    Molality    Molality

	Sorbedhfo_wOH     3.742e-04       0.768   3.742e-04      -3.427
	Sorbedhfo_wOH2+   5.745e-05       0.118   5.745e-05      -4.241
	Sorbedhfo_wO-     5.584e-05       0.115   5.584e-05      -4.253
	Sorbedhfo_wOCa+   4.162e-10       0.000   4.162e-10      -9.381

----------------------------------User print-----------------------------------

Adapting surface in            2 

------------------------------Surface composition------------------------------

Sua           
	 -3.203e-18  Surface + diffuse layer charge, eq
	  0.000e+00  Surface charge, eq
	  0.000e+00  sigma, C/m**2
	  4.277e-16  psi, V
	 -1.665e-14  -F*psi/RT
	  1.000e+00  exp(-F*psi/RT)
	  1.000e+04  specific area, m**2/g
	  9.994e+03  m**2 for   9.994e-01 g

	Water in diffuse layer: 9.994e-06 kg, 49.9% of total DDL-water.

	Total moles in diffuse layer (excluding water), Donnan calculation 

	Element       	     Moles
	Ca            	  9.9682e-12
	Cl            	  9.9980e-09
	H             	  2.0898e-12
	Na            	  9.9780e-09
	O             	  1.0473e-12

Sua           
	  9.994e-04  moles
	                                   Mole                     Log
	Species               Moles    Fraction    Molality    Molality

	Sua               9.994e-04       1.000   9.994e-04      -3.000

Sub           
	 -3.204e-18  Surface + diffuse layer charge, eq
	  0.000e+00  Surface charge, eq
	  0.000e+00  sigma, C/m**2
	  4.277e-16  psi, V
	 -1.665e-14  -F*psi/RT
	  1.000e+00  exp(-F*psi/RT)
	  1.000e+04  specific area, m**2/g
	  1.000e+04  m**2 for   1.000e+00 g

	Water in diffuse layer: 1.000e-05 kg, 49.9% of total DDL-water.

	Total moles in diffuse layer (excluding water), Donnan calculation 

	Element       	     Moles
	Ca            	  9.9742e-12
	Cl            	  1.0004e-08
	H             	  2.0910e-12
	Na            	  9.9840e-09
	O             	  1.0479e-12

Sub           
	  1.000e-03  moles
	                                   Mole                     Log
	Species               Moles    Fraction    Molality    Molality

	Sub               1.000e-03       1.000   1.000e-03      -3.000

Hfo           
	 -2.452e-13  Surface + diffuse layer charge, eq
	  1.669e-06  Surface charge, eq
	  6.101e-03  sigma, C/m**2
	  6.531e-02  psi, V
	 -2.542e+00  -F*psi/RT
	  7.871e-02  exp(-F*psi/RT)
	  6.000e+02  specific area, m**2/g
	  2.640e+01  m**2 for   4.401e-02 g

	Water in diffuse layer: 2.640e-08 kg,  0.1% of total DDL-water.

	Total moles in diffuse layer (excluding water), Donnan calculation 

	Element       	     Moles
	Ca            	  7.3122e-24
	Cl            	  1.6692e-06
	H             	  1.7322e-10
	Na            	  4.1891e-16
	O             	  1.7322e-10

Hfo_s         
	  1.250e-05  moles
	                                   Mole                     Log
	Species               Moles    Fraction    Molality    Molality

	Hfo_sOH           9.592e-06       0.767   9.592e-06      -5.018
	Hfo_sOH2+         1.473e-06       0.118   1.473e-06      -5.832
	Hfo_sO-           1.431e-06       0.114   1.431e-06      -5.844
	Hfo_sOHCa+2       5.542e-09       0.000   5.542e-09      -8.256

Hfo_w         
	  4.876e-04  moles
	                                   Mole                     Log
	Species               Moles    Fraction    Molality    Molality

	Hfo_wOH           3.743e-04       0.768   3.743e-04      -3.427
	Hfo_wOH2+         5.746e-05       0.118   5.746e-05      -4.241
	Hfo_wO-           5.585e-05       0.115   5.585e-05      -4.253
	Hfo_wOCa+         4.157e-10       0.000   4.157e-10      -9.381

Sorbedhfo     
	 -7.356e-20  Surface + diffuse layer charge, eq
	  5.007e-13  Surface charge, eq
	  6.101e-03  sigma, C/m**2
	  6.531e-02  psi, V
	 -2.542e+00  -F*psi/RT
	  7.871e-02  exp(-F*psi/RT)
	  6.000e+02  specific area, m**2/g
	  7.920e-06  m**2 for   1.320e-08 g

	Water in diffuse layer: 7.920e-15 kg,  0.0% of total DDL-water.

	Total moles in diffuse layer (excluding water), Donnan calculation 

	Element       	     Moles
	Ca            	  2.1933e-30
	Cl            	  5.0068e-13
	H             	  5.1957e-17
	Na            	  1.2565e-22
	O             	  5.1957e-17

Sorbedhfo_s   
	  3.750e-12  moles
	                                   Mole                     Log
	Species               Moles    Fraction    Molality    Molality

	Sorbedhfo_sOH     2.877e-12       0.767   2.877e-12     -11.541
	Sorbedhfo_sOH2+   4.418e-13       0.118   4.418e-13     -12.355
	Sorbedhfo_sO-     4.293e-13       0.114   4.293e-13     -12.367
	Sorbedhfo_sOHCa+2   1.662e-15       0.000   1.662e-15     -14.779

Sorbedhfo_w   
	  1.463e-10  moles
	                                   Mole                     Log
	Species               Moles    Fraction    Molality    Molality

	Sorbedhfo_wOH     1.123e-10       0.768   1.123e-10      -9.950
	Sorbedhfo_wOH2+   1.724e-11       0.118   1.724e-11     -10.764
	Sorbedhfo_wO-     1.675e-11       0.115   1.675e-11     -10.776
	Sorbedhfo_wOCa+   1.247e-16       0.000   1.247e-16     -15.904

----------------------------------User print-----------------------------------

Adapting surface in            3 

------------------------------Surface composition------------------------------

Sua           
	  5.758e-21  Surface + diffuse layer charge, eq
	  0.000e+00  Surface charge, eq
	  0.000e+00  sigma, C/m**2
	 -4.865e-14  psi, V
	  1.894e-12  -F*psi/RT
	  1.000e+00  exp(-F*psi/RT)
	  1.000e+04  specific area, m**2/g
	  5.998e+00  m**2 for   5.998e-04 g

	Water in diffuse layer: 5.998e-09 kg, 99.9% of total DDL-water.

	Total moles in diffuse layer (excluding water), Donnan calculation 

	Element       	     Moles
	Ca            	  3.5914e-18
	Cl            	  3.6012e-15
	H             	  1.2124e-15
	Na            	  3.5946e-15
	O             	  6.0648e-16

Sua           
	  5.998e-07  moles
	                                   Mole                     Log
	Species               Moles    Fraction    Molality    Molality

	Sua               5.998e-07       1.000   5.998e-07      -6.222

Sub           
	  5.760e-24  Surface + diffuse layer charge, eq
	  0.000e+00  Surface charge, eq
	  0.000e+00  sigma, C/m**2
	 -4.865e-14  psi, V
	  1.894e-12  -F*psi/RT
	  1.000e+00  exp(-F*psi/RT)
	  1.000e+04  specific area, m**2/g
	  6.000e-03  m**2 for   6.000e-07 g

	Water in diffuse layer: 6.000e-12 kg,  0.1% of total DDL-water.

	Total moles in diffuse layer (excluding water), Donnan calculation 

	Element       	     Moles
	Ca            	  3.5924e-21
	Cl            	  3.6022e-18
	H             	  1.2128e-18
	Na            	  3.5957e-18
	O             	  6.0666e-19

Sub           
	  6.000e-10  moles
	                                   Mole                     Log
	Species               Moles    Fraction    Molality    Molality

	Sub               6.000e-10       1.000   6.000e-10      -9.222

Hfo           
	 -2.117e-16  Surface + diffuse layer charge, eq
	  2.650e-14  Surface charge, eq
	  1.614e-04  sigma, C/m**2
	  6.565e-02  psi, V
	 -2.555e+00  -F*psi/RT
	  7.765e-02  exp(-F*psi/RT)
	  6.000e+02  specific area, m**2/g
	  1.584e-05  m**2 for   2.640e-08 g

	Water in diffuse layer: 1.584e-14 kg,  0.0% of total DDL-water.

	Total moles in diffuse layer (excluding water), Donnan calculation 

	Element       	     Moles
	Ca            	  8.1832e-36
	Cl            	  2.2888e-14
	H             	  3.8199e-15
	Na            	  4.5712e-27
	O             	  3.8199e-15

Hfo_s         
	  7.500e-12  moles
	                                   Mole                     Log
	Species               Moles    Fraction    Molality    Molality

	Hfo_sOH           5.757e-12       0.768   5.757e-12     -11.240
	Hfo_sOH2+         8.717e-13       0.116   8.717e-13     -12.060
	Hfo_sO-           8.711e-13       0.116   8.711e-13     -12.060
	Hfo_sOHCa+2       1.940e-18       0.000   1.940e-18     -17.712

Hfo_w         
	  2.925e-10  moles
	                                   Mole                     Log
	Species               Moles    Fraction    Molality    Molality

	Hfo_wOH           2.245e-10       0.768   2.245e-10      -9.649
	Hfo_wOH2+         3.400e-11       0.116   3.400e-11     -10.469
	Hfo_wO-           3.397e-11       0.116   3.397e-11     -10.469
	Hfo_wOCa+         1.474e-19       0.000   1.474e-19     -18.831

----------------------------------User print-----------------------------------

Adapting surface in            1 

------------------------------Surface composition------------------------------

Hfo           
	 -3.481e-12  Surface + diffuse layer charge, eq
	  3.338e-06  Surface charge, eq
	  6.101e-03  sigma, C/m**2
	  6.530e-02  psi, V
	 -2.542e+00  -F*psi/RT
	  7.874e-02  exp(-F*psi/RT)
	  6.000e+02  specific area, m**2/g
	  5.280e+01  m**2 for   8.800e-02 g

	Water in diffuse layer: 5.280e-08 kg,  0.3% of total DDL-water.

	Total moles in diffuse layer (excluding water), Donnan calculation 

	Element       	     Moles
	Ca            	  1.4647e-23
	Cl            	  3.3380e-06
	H             	  3.4634e-10
	Na            	  8.3866e-16
	O             	  3.4634e-10

Hfo_s         
	  2.500e-05  moles
	                                   Mole                     Log
	Species               Moles    Fraction    Molality    Molality

	Hfo_sOH           1.918e-05       0.767   1.918e-05      -4.717
	Hfo_sOH2+         2.945e-06       0.118   2.945e-06      -5.531
	Hfo_sO-           2.862e-06       0.114   2.862e-06      -5.543
	Hfo_sOHCa+2       1.110e-08       0.000   1.110e-08      -7.955

Hfo_w         
	  9.750e-04  moles
	                                   Mole                     Log
	Species               Moles    Fraction    Molality    Molality

	Hfo_wOH           7.484e-04       0.768   7.484e-04      -3.126
	Hfo_wOH2+         1.149e-04       0.118   1.149e-04      -3.940
	Hfo_wO-           1.117e-04       0.115   1.117e-04      -3.952
	Hfo_wOCa+         8.324e-10       0.000   8.324e-10      -9.080

Sua           
	 -2.522e-17  Surface + diffuse layer charge, eq
	  0.000e+00  Surface charge, eq
	  0.000e+00  sigma, C/m**2
	  3.293e-15  psi, V
	 -1.282e-13  -F*psi/RT
	  1.000e+00  exp(-F*psi/RT)
	  1.000e+04  specific area, m**2/g
	  1.000e+04  m**2 for   1.000e+00 g

	Water in diffuse layer: 1.000e-05 kg, 49.7% of total DDL-water.

	Total moles in diffuse layer (excluding water), Donnan calculation 

	Element       	     Moles
	Ca            	  9.9801e-12
	Cl            	  1.0010e-08
	H             	  2.0910e-12
	Na            	  9.9900e-09
	O             	  1.0484e-12

Sua           
	  1.000e-03  moles
	                                   Mole                     Log
	Species               Moles    Fraction    Molality    Molality

	Sua               1.000e-03       1.000   1.000e-03      -3.000

Sub           
	 -2.522e-17  Surface + diffuse layer charge, eq
	  0.000e+00  Surface charge, eq
	  0.000e+00  sigma, C/m**2
	  3.293e-15  psi, V
	 -1.282e-13  -F*psi/RT
	  1.000e+00  exp(-F*psi/RT)
	  1.000e+04  specific area, m**2/g
	  1.000e+04  m**2 for   1.000e+00 g

	Water in diffuse layer: 1.000e-05 kg, 49.7% of total DDL-water.

	Total moles in diffuse layer (excluding water), Donnan calculation 

	Element       	     Moles
	Ca            	  9.9801e-12
	Cl            	  1.0010e-08
	H             	  2.0910e-12
	Na            	  9.9900e-09
	O             	  1.0484e-12

Sub           
	  1.000e-03  moles
	                                   Mole                     Log
	Species               Moles    Fraction    Molality    Molality

	Sub               1.000e-03       1.000   1.000e-03      -3.000

Sorbedhfo     
	 -3.481e-12  Surface + diffuse layer charge, eq
	  3.338e-06  Surface charge, eq
	  6.101e-03  sigma, C/m**2
	  6.530e-02  psi, V
	 -2.542e+00  -F*psi/RT
	  7.874e-02  exp(-F*psi/RT)
	  6.000e+02  specific area, m**2/g
	  5.280e+01  m**2 for   8.800e-02 g

	Water in diffuse layer: 5.280e-08 kg,  0.3% of total DDL-water.

	Total moles in diffuse layer (excluding water), Donnan calculation 

	Element       	     Moles
	Ca            	  1.4646e-23
	Cl            	  3.3379e-06
	H             	  3.4633e-10
	Na            	  8.3863e-16
	O             	  3.4633e-10

Sorbedhfo_s   
	  2.500e-05  moles
	                                   Mole                     Log
	Species               Moles    Fraction    Molality    Molality

	Sorbedhfo_sOH     1.918e-05       0.767   1.918e-05      -4.717
	Sorbedhfo_sOH2+   2.945e-06       0.118   2.945e-06      -5.531
	Sorbedhfo_sO-     2.862e-06       0.114   2.862e-06      -5.543
	Sorbedhfo_sOHCa+2   1.110e-08       0.000   1.110e-08      -7.955

Sorbedhfo_w   
	  9.750e-04  moles
	                                   Mole                     Log
	Species               Moles    Fraction    Molality    Molality

	Sorbedhfo_wOH     7.484e-04       0.768   7.484e-04      -3.126
	Sorbedhfo_wOH2+   1.149e-04       0.118   1.149e-04      -3.940
	Sorbedhfo_wO-     1.117e-04       0.115   1.117e-04      -3.952
	Sorbedhfo_wOCa+   8.324e-10       0.000   8.324e-10      -9.080

----------------------------------User print-----------------------------------

Adapting surface in            2 

------------------------------Surface composition------------------------------

Hfo           
	 -4.260e-13  Surface + diffuse layer charge, eq
	  1.669e-06  Surface charge, eq
	  6.101e-03  sigma, C/m**2
	  6.530e-02  psi, V
	 -2.542e+00  -F*psi/RT
	  7.874e-02  exp(-F*psi/RT)
	  6.000e+02  specific area, m**2/g
	  2.640e+01  m**2 for   4.399e-02 g

	Water in diffuse layer: 2.640e-08 kg,  0.1% of total DDL-water.

	Total moles in diffuse layer (excluding water), Donnan calculation 

	Element       	     Moles
	Ca            	  7.3224e-24
	Cl            	  1.6687e-06
	H             	  1.7315e-10
	Na            	  4.1927e-16
	O             	  1.7315e-10

Hfo_s         
	  1.250e-05  moles
	                                   Mole                     Log
	Species               Moles    Fraction    Molality    Molality

	Hfo_sOH           9.589e-06       0.767   9.589e-06      -5.018
	Hfo_sOH2+         1.472e-06       0.118   1.472e-06      -5.832
	Hfo_sO-           1.431e-06       0.114   1.431e-06      -5.844
	Hfo_sOHCa+2       5.549e-09       0.000   5.549e-09      -8.256

Hfo_w         
	  4.874e-04  moles
	                                   Mole                     Log
	Species               Moles    Fraction    Molality    Molality

	Hfo_wOH           3.742e-04       0.768   3.742e-04      -3.427
	Hfo_wOH2+         5.744e-05       0.118   5.744e-05      -4.241
	Hfo_wO-           5.583e-05       0.115   5.583e-05      -4.253
	Hfo_wOCa+         4.162e-10       0.000   4.162e-10      -9.381

Sua           
	 -5.741e-18  Surface + diffuse layer charge, eq
	  0.000e+00  Surface charge, eq
	  0.000e+00  sigma, C/m**2
	  7.655e-16  psi, V
	 -2.980e-14  -F*psi/RT
	  1.000e+00  exp(-F*psi/RT)
	  1.000e+04  specific area, m**2/g
	  1.000e+04  m**2 for   1.000e+00 g

	Water in diffuse layer: 1.000e-05 kg, 49.9% of total DDL-water.

	Total moles in diffuse layer (excluding water), Donnan calculation 

	Element       	     Moles
	Ca            	  9.9800e-12
	Cl            	  1.0010e-08
	H             	  2.0910e-12
	Na            	  9.9900e-09
	O             	  1.0484e-12

Sua           
	  1.000e-03  moles
	                                   Mole                     Log
	Species               Moles    Fraction    Molality    Molality

	Sua               1.000e-03       1.000   1.000e-03      -3.000

Sub           
	 -5.741e-18  Surface + diffuse layer charge, eq
	  0.000e+00  Surface charge, eq
	  0.000e+00  sigma, C/m**2
	  7.655e-16  psi, V
	 -2.980e-14  -F*psi/RT
	  1.000e+00  exp(-F*psi/RT)
	  1.000e+04  specific area, m**2/g
	  1.000e+04  m**2 for   1.000e+00 g

	Water in diffuse layer: 1.000e-05 kg, 49.9% of total DDL-water.

	Total moles in diffuse layer (excluding water), Donnan calculation 

	Element       	     Moles
	Ca            	  9.9800e-12
	Cl            	  1.0010e-08
	H             	  2.0910e-12
	Na            	  9.9900e-09
	O             	  1.0484e-12

Sub           
	  1.000e-03  moles
	                                   Mole                     Log
	Species               Moles    Fraction    Molality    Molality

	Sub               1.000e-03       1.000   1.000e-03      -3.000

Sorbedhfo     
	 -2.130e-13  Surface + diffuse layer charge, eq
	  8.347e-07  Surface charge, eq
	  6.101e-03  sigma, C/m**2
	  6.530e-02  psi, V
	 -2.542e+00  -F*psi/RT
	  7.874e-02  exp(-F*psi/RT)
	  6.000e+02  specific area, m**2/g
	  1.320e+01  m**2 for   2.200e-02 g

	Water in diffuse layer: 1.320e-08 kg,  0.1% of total DDL-water.

	Total moles in diffuse layer (excluding water), Donnan calculation 

	Element       	     Moles
	Ca            	  3.6623e-24
	Cl            	  8.3462e-07
	H             	  8.6599e-11
	Na            	  2.0970e-16
	O             	  8.6599e-11

Sorbedhfo_s   
	  6.251e-06  moles
	                                   Mole                     Log
	Species               Moles    Fraction    Molality    Molality

	Sorbedhfo_sOH     4.796e-06       0.767   4.796e-06      -5.319
	Sorbedhfo_sOH2+   7.364e-07       0.118   7.364e-07      -6.133
	Sorbedhfo_sO-     7.156e-07       0.114   7.156e-07      -6.145
	Sorbedhfo_sOHCa+2   2.775e-09       0.000   2.775e-09      -8.557

Sorbedhfo_w   
	  2.438e-04  moles
	                                   Mole                     Log
	Species               Moles    Fraction    Molality    Molality

	Sorbedhfo_wOH     1.871e-04       0.768   1.871e-04      -3.728
	Sorbedhfo_wOH2+   2.873e-05       0.118   2.873e-05      -4.542
	Sorbedhfo_wO-     2.792e-05       0.115   2.792e-05      -4.554
	Sorbedhfo_wOCa+   2.081e-10       0.000   2.081e-10      -9.682

----------------------------------User print-----------------------------------

Adapting surface in            3 

------------------------------Surface composition------------------------------

Sua           
	 -8.845e-19  Surface + diffuse layer charge, eq
	  0.000e+00  Surface charge, eq
	  0.000e+00  sigma, C/m**2
	  2.774e-16  psi, V
	 -1.080e-14  -F*psi/RT
	  1.000e+00  exp(-F*psi/RT)
	  1.000e+04  specific area, m**2/g
	  9.994e+03  m**2 for   9.994e-01 g

	Water in diffuse layer: 9.994e-06 kg, 50.0% of total DDL-water.

	Total moles in diffuse layer (excluding water), Donnan calculation 

	Element       	     Moles
	Ca            	  9.9682e-12
	Cl            	  9.9980e-09
	H             	  2.0897e-12
	Na            	  9.9781e-09
	O             	  1.0473e-12

Sua           
	  9.994e-04  moles
	                                   Mole                     Log
	Species               Moles    Fraction    Molality    Molality

	Sua               9.994e-04       1.000   9.994e-04      -3.000

Sub           
	 -8.851e-19  Surface + diffuse layer charge, eq
	  0.000e+00  Surface charge, eq
	  0.000e+00  sigma, C/m**2
	  2.774e-16  psi, V
	 -1.080e-14  -F*psi/RT
	  1.000e+00  exp(-F*psi/RT)
	  1.000e+04  specific area, m**2/g
	  1.000e+04  m**2 for   1.000e+00 g

	Water in diffuse layer: 1.000e-05 kg, 50.0% of total DDL-water.

	Total moles in diffuse layer (excluding water), Donnan calculation 

	Element       	     Moles
	Ca            	  9.9742e-12
	Cl            	  1.0004e-08
	H             	  2.0909e-12
	Na            	  9.9840e-09
	O             	  1.0479e-12

Sub           
	  1.000e-03  moles
	                                   Mole                     Log
	Species               Moles    Fraction    Molality    Molality

	Sub               1.000e-03       1.000   1.000e-03      -3.000

Hfo           
	 -1.064e-15  Surface + diffuse layer charge, eq
	  8.348e-07  Surface charge, eq
	  6.101e-03  sigma, C/m**2
	  6.531e-02  psi, V
	 -2.542e+00  -F*psi/RT
	  7.871e-02  exp(-F*psi/RT)
	  6.000e+02  specific area, m**2/g
	  1.320e+01  m**2 for   2.201e-02 g

	Water in diffuse layer: 1.320e-08 kg,  0.1% of total DDL-water.

	Total moles in diffuse layer (excluding water), Donnan calculation 

	Element       	     Moles
	Ca            	  3.6567e-24
	Cl            	  8.3472e-07
	H             	  8.6621e-11
	Na            	  2.0949e-16
	O             	  8.6621e-11

Hfo_s         
	  6.252e-06  moles
	                                   Mole                     Log
	Species               Moles    Fraction    Molality    Molality

	Hfo_sOH           4.797e-06       0.767   4.797e-06      -5.319
	Hfo_sOH2+         7.365e-07       0.118   7.365e-07      -6.133
	Hfo_sO-           7.158e-07       0.114   7.158e-07      -6.145
	Hfo_sOHCa+2       2.772e-09       0.000   2.772e-09      -8.557

Hfo_w         
	  2.438e-04  moles
	                                   Mole                     Log
	Species               Moles    Fraction    Molality    Molality

	Hfo_wOH           1.872e-04       0.768   1.872e-04      -3.728
	Hfo_wOH2+         2.874e-05       0.118   2.874e-05      -4.542
	Hfo_wO-           2.793e-05       0.115   2.793e-05      -4.554
	Hfo_wOCa+         2.079e-10       0.000   2.079e-10      -9.682

Sorbedhfo     
	 -6.384e-22  Surface + diffuse layer charge, eq
	  5.007e-13  Surface charge, eq
	  6.101e-03  sigma, C/m**2
	  6.531e-02  psi, V
	 -2.542e+00  -F*psi/RT
	  7.871e-02  exp(-F*psi/RT)
	  6.000e+02  specific area, m**2/g
	  7.920e-06  m**2 for   1.320e-08 g

	Water in diffuse layer: 7.920e-15 kg,  0.0% of total DDL-water.

	Total moles in diffuse layer (excluding water), Donnan calculation 

	Element       	     Moles
	Ca            	  2.1933e-30
	Cl            	  5.0068e-13
	H             	  5.1957e-17
	Na            	  1.2565e-22
	O             	  5.1957e-17

Sorbedhfo_s   
	  3.750e-12  moles
	                                   Mole                     Log
	Species               Moles    Fraction    Molality    Molality

	Sorbedhfo_sOH     2.877e-12       0.767   2.877e-12     -11.541
	Sorbedhfo_sOH2+   4.418e-13       0.118   4.418e-13     -12.355
	Sorbedhfo_sO-     4.293e-13       0.114   4.293e-13     -12.367
	Sorbedhfo_sOHCa+2   1.662e-15       0.000   1.662e-15     -14.779

Sorbedhfo_w   
	  1.462e-10  moles
	                                   Mole                     Log
	Species               Moles    Fraction    Molality    Molality

	Sorbedhfo_wOH     1.123e-10       0.768   1.123e-10      -9.950
	Sorbedhfo_wOH2+   1.724e-11       0.118   1.724e-11     -10.764
	Sorbedhfo_wO-     1.675e-11       0.115   1.675e-11     -10.776
	Sorbedhfo_wOCa+   1.247e-16       0.000   1.247e-16     -15.904

