WARNING: Database file from DATABASE keyword is used; command line argument ignored.
   Input file: sc6a
  Output file: sc6a.out
Database file: ../database/phreeqc.dat

------------------
Reading data base.
------------------

	SOLUTION_MASTER_SPECIES
	SOLUTION_SPECIES
	PHASES
	EXCHANGE_MASTER_SPECIES
	EXCHANGE_SPECIES
	SURFACE_MASTER_SPECIES
	SURFACE_SPECIES
	RATES
	END
------------------------------------
Reading input data for simulation 1.
------------------------------------

	DATABASE ../database/phreeqc.dat
	SELECTED_OUTPUT 101
	    file                 sc6a_101.sel
	USER_PUNCH 101
	    headings Mu SC
	    start
	10 PUNCH STR_F$(MU, 20, 12)
	20 PUNCH STR_F$(SC, 20, 10)
	    end
	SOLUTION_SPECIES
	 Na+ = Na+
	 log_k 0
	 gamma 1e10 0
	 Ca+2 = Ca+2
	 log_k 0
	 gamma 1e10 0
	 Cl- = Cl-
	 log_k 0
	 gamma 1e10 0
	 H2O + 0.01e- = H2O-0.01
	 log_k -9
	SURFACE_MASTER_SPECIES
	 Sua Sua
	 Sub Sub
	 Suc Suc
	SURFACE_SPECIES
	 Sua = Sua
	 log_k 0
	 Sub = Sub
	 log_k 0
	 Suc = Suc
	 log_k 0
	SURFACE_MASTER_SPECIES /* defined sorbed form of Hfo = Sorbedhfo */
	 Sorbedhfo_s Sorbedhfo_sOH
	 Sorbedhfo_w Sorbedhfo_wOH
	SURFACE_SPECIES
	 Sorbedhfo_sOH = Sorbedhfo_sOH
	 log_k 0.0
	 Sorbedhfo_sOH + H+ = Sorbedhfo_sOH2+
	 log_k 7.29
	 Sorbedhfo_sOH = Sorbedhfo_sO- + H+
	 log_k -8.93
	 Sorbedhfo_wOH = Sorbedhfo_wOH
	 log_k 0.0
	 Sorbedhfo_wOH + H+ = Sorbedhfo_wOH2+
	 log_k 7.29
	 Sorbedhfo_wOH = Sorbedhfo_wO- + H+
	 log_k -8.93
	 Sorbedhfo_sOH + Ca+2 = Sorbedhfo_sOHCa+2
	 log_k 4.97
	 Sorbedhfo_wOH + Ca+2 = Sorbedhfo_wOCa+ + H+
	 log_k -5.85
	 Sorbedhfo_sOH + Zn+2 = Sorbedhfo_sOZn+ + H+
	 log_k 0.99
	 Sorbedhfo_wOH + Zn+2 = Sorbedhfo_wOZn+ + H+
	 log_k -1.99
	SOLUTION 0-21
	END          
-------------------------------------------
Beginning of initial solution calculations.
-------------------------------------------

Initial solution 0.	

-----------------------------Solution composition------------------------------

	Elements           Molality       Moles

	Pure water     

----------------------------Description of solution----------------------------

                                       pH  =   7.000    
                                       pe  =   4.000    
      Specific Conductance (µS/cm,  25°C)  = 0
                          Density (g/cm³)  =   0.99704
                               Volume (L)  =   1.00297
                        Activity of water  =   1.000
                 Ionic strength (mol/kgw)  =   1.007e-07
                       Mass of water (kg)  =   1.000e+00
                 Total alkalinity (eq/kg)  =   1.217e-09
                         Temperature (°C)  =  25.00
                  Electrical balance (eq)  =  -1.226e-09
 Percent error, 100*(Cat-|An|)/(Cat+|An|)  =  -0.61
                               Iterations  =   0
                                  Total H  = 1.110124e+02
                                  Total O  = 5.550622e+01

----------------------------Distribution of species----------------------------

                                               Log       Log       Log    mole V
   Species          Molality    Activity  Molality  Activity     Gamma   cm³/mol

   OH-             1.013e-07   1.012e-07    -6.995    -6.995    -0.000     -4.14
   H+              1.001e-07   1.000e-07    -7.000    -7.000    -0.000      0.00
   H2O-0.01        9.120e-10   9.120e-10    -9.040    -9.040    -0.000     (0)  
   H2O             5.551e+01   1.000e+00     1.744     0.000     0.000     18.07
H(0)          1.416e-25
   H2              7.079e-26   7.079e-26   -25.150   -25.150     0.000     28.61
O(0)          0.000e+00
   O2              0.000e+00   0.000e+00   -42.080   -42.080     0.000     30.40

------------------------------Saturation indices-------------------------------

  Phase               SI** log IAP   log K(298 K,   1 atm)

  H2(g)           -22.05    -25.15   -3.10  H2
  H2O(g)           -1.50      0.00    1.50  H2O
  O2(g)           -39.19    -42.08   -2.89  O2

**For a gas, SI = log10(fugacity). Fugacity = pressure * phi / 1 atm.
  For ideal gases, phi = 1.

------------------
End of simulation.
------------------

------------------------------------
Reading input data for simulation 2.
------------------------------------

	SOLUTION 0
	 Na 1
	 Ca 1e-3
	 Cl 1
	SURFACE 0
	 Sua 1e-3 1e4 1 Dw 1e-9
	 donnan 1e-12 #d 1 l 0.99 v 1# 1e-9
	 Sub 1e-3 1e4 1 Dw 1e-12
	 donnan 1e-12 #d 1 l 0.99 v 1# 1e-9
	 Hfo_w 97.5e-5 600 88e-3 Dw 1e-12
	 Hfo_s 2.5e-5
	 donnan 1e-12 #d 1 l 0.99 v 1# 1e-9
	 equilibrate 0
	END
-------------------------------------------
Beginning of initial solution calculations.
-------------------------------------------

Initial solution 0.	

-----------------------------Solution composition------------------------------

	Elements           Molality       Moles

	Ca                1.000e-06   1.000e-06
	Cl                1.000e-03   1.000e-03
	Na                1.000e-03   1.000e-03

----------------------------Description of solution----------------------------

                                       pH  =   7.000    
                                       pe  =   4.000    
      Specific Conductance (µS/cm,  25°C)  = 0
                          Density (g/cm³)  =   0.99710
                               Volume (L)  =   1.00297
                        Activity of water  =   1.000
                 Ionic strength (mol/kgw)  =   1.002e-03
                       Mass of water (kg)  =   1.000e+00
                 Total alkalinity (eq/kg)  =   1.453e-09
                         Temperature (°C)  =  25.00
                  Electrical balance (eq)  =   1.999e-06
 Percent error, 100*(Cat-|An|)/(Cat+|An|)  =   0.10
                               Iterations  =   1
                                  Total H  = 1.110124e+02
                                  Total O  = 5.550622e+01

----------------------------Distribution of species----------------------------

                                               Log       Log       Log    mole V
   Species          Molality    Activity  Molality  Activity     Gamma   cm³/mol

   OH-             1.049e-07   1.012e-07    -6.979    -6.995    -0.016     -4.11
   H+              1.035e-07   1.000e-07    -6.985    -7.000    -0.015      0.00
   H2O-0.01        9.120e-10   9.120e-10    -9.040    -9.040    -0.000     (0)  
   H2O             5.551e+01   1.000e+00     1.744    -0.000     0.000     18.07
Ca            1.000e-06
   Ca+2            1.000e-06   1.000e-06    -6.000    -6.000    -0.000     (0)  
   CaOH+           1.720e-12   1.660e-12   -11.765   -11.780    -0.015     (0)  
Cl            1.000e-03
   Cl-             1.000e-03   1.000e-03    -3.000    -3.000    -0.000     (0)  
H(0)          1.416e-25
   H2              7.078e-26   7.079e-26   -25.150   -25.150     0.000     28.61
Na            1.000e-03
   Na+             1.000e-03   1.000e-03    -3.000    -3.000    -0.000     (0)  
   NaOH            1.012e-20   1.012e-20   -19.995   -19.995     0.000     (0)  
O(0)          0.000e+00
   O2              0.000e+00   0.000e+00   -42.080   -42.080     0.000     30.40

------------------------------Saturation indices-------------------------------

  Phase               SI** log IAP   log K(298 K,   1 atm)

  H2(g)           -22.05    -25.15   -3.10  H2
  H2O(g)           -1.50     -0.00    1.50  H2O
  Halite           -7.57     -6.00    1.57  NaCl
  O2(g)           -39.19    -42.08   -2.89  O2

**For a gas, SI = log10(fugacity). Fugacity = pressure * phi / 1 atm.
  For ideal gases, phi = 1.

------------------------------------------------------
Beginning of initial surface-composition calculations.
------------------------------------------------------

Surface 0.	

Diffuse Double Layer Surface-Complexation Model

Hfo           
	  8.885e-18  Surface + diffuse layer charge, eq
	  3.336e-06  Surface charge, eq
	  6.097e-03  sigma, C/m²
	  6.530e-02  psi, V
	 -2.542e+00  -F*psi/RT
	  7.874e-02  exp(-F*psi/RT)
	  6.000e+02  specific area, m²/g
	  5.280e+01  m² for   8.800e-02 g

	Water in diffuse layer: 5.280e-08 kg,  0.3% of total DDL-water.

	Total moles in diffuse layer (excluding water), Donnan calculation.
	Donnan Layer potential, psi_DL =  2.840e-01 V.
	Boltzmann factor, exp(-psi_DL * F / RT) = 1.583e-05 (= c_DL / c_free if z is +1).

	Element       	     Moles
	Ca            	  1.4667e-23
	Cl            	  3.3356e-06
	H             	  3.4993e-10
	Na            	  8.3578e-16
	O             	  3.4993e-10

Hfo_s         
	  2.500e-05  moles
	                                   Mole                     Log
	Species               Moles    Fraction    Molality    Molality

	Hfo_sOH           1.918e-05       0.767   1.918e-05      -4.717
	Hfo_sOH2+         2.945e-06       0.118   2.945e-06      -5.531
	Hfo_sO-           2.862e-06       0.114   2.862e-06      -5.543
	Hfo_sOHCa+2       1.110e-08       0.000   1.110e-08      -7.955

Hfo_w         
	  9.750e-04  moles
	                                   Mole                     Log
	Species               Moles    Fraction    Molality    Molality

	Hfo_wOH           7.484e-04       0.768   7.484e-04      -3.126
	Hfo_wOH2+         1.149e-04       0.118   1.149e-04      -3.940
	Hfo_wO-           1.117e-04       0.115   1.117e-04      -3.952
	Hfo_wOCa+         8.324e-10       0.000   8.324e-10      -9.080

Sua           
	  1.445e-24  Surface + diffuse layer charge, eq
	  0.000e+00  Surface charge, eq
	  0.000e+00  sigma, C/m²
	  2.755e-22  psi, V
	 -1.072e-20  -F*psi/RT
	  1.000e+00  exp(-F*psi/RT)
	  1.000e+04  specific area, m²/g
	  1.000e+04  m² for   1.000e+00 g

	Water in diffuse layer: 1.000e-05 kg, 49.9% of total DDL-water.

	Total moles in diffuse layer (excluding water), Donnan calculation.
	Donnan Layer potential, psi_DL =  2.562e-05 V.
	Boltzmann factor, exp(-psi_DL * F / RT) = 9.990e-01 (= c_DL / c_free if z is +1).

	Element       	     Moles
	Ca            	  9.9801e-12
	Cl            	  1.0010e-08
	H             	  2.1019e-12
	Na            	  9.9900e-09
	O             	  1.0593e-12

Sua           
	  1.000e-03  moles
	                                   Mole                     Log
	Species               Moles    Fraction    Molality    Molality

	Sua               1.000e-03       1.000   1.000e-03      -3.000

Sub           
	  1.445e-24  Surface + diffuse layer charge, eq
	  0.000e+00  Surface charge, eq
	  0.000e+00  sigma, C/m²
	  2.755e-22  psi, V
	 -1.072e-20  -F*psi/RT
	  1.000e+00  exp(-F*psi/RT)
	  1.000e+04  specific area, m²/g
	  1.000e+04  m² for   1.000e+00 g

	Water in diffuse layer: 1.000e-05 kg, 49.9% of total DDL-water.

	Total moles in diffuse layer (excluding water), Donnan calculation.
	Donnan Layer potential, psi_DL =  2.562e-05 V.
	Boltzmann factor, exp(-psi_DL * F / RT) = 9.990e-01 (= c_DL / c_free if z is +1).

	Element       	     Moles
	Ca            	  9.9801e-12
	Cl            	  1.0010e-08
	H             	  2.1019e-12
	Na            	  9.9900e-09
	O             	  1.0593e-12

Sub           
	  1.000e-03  moles
	                                   Mole                     Log
	Species               Moles    Fraction    Molality    Molality

	Sub               1.000e-03       1.000   1.000e-03      -3.000

-----------------------------------------
Beginning of batch-reaction calculations.
-----------------------------------------

Reaction step 1.

Using solution 0.	
Using surface 0.	

------------------------------Surface composition------------------------------

Diffuse Double Layer Surface-Complexation Model

Hfo           
	 -1.267e-12  Surface + diffuse layer charge, eq
	  3.336e-06  Surface charge, eq
	  6.097e-03  sigma, C/m²
	  6.530e-02  psi, V
	 -2.542e+00  -F*psi/RT
	  7.874e-02  exp(-F*psi/RT)
	  6.000e+02  specific area, m²/g
	  5.280e+01  m² for   8.800e-02 g

	Water in diffuse layer: 5.280e-08 kg,  0.3% of total DDL-water.

	Total moles in diffuse layer (excluding water), Donnan calculation.
	Donnan Layer potential, psi_DL =  2.840e-01 V.
	Boltzmann factor, exp(-psi_DL * F / RT) = 1.583e-05 (= c_DL / c_free if z is +1).

	Element       	     Moles
	Ca            	  1.4667e-23
	Cl            	  3.3356e-06
	H             	  3.4993e-10
	Na            	  8.3578e-16
	O             	  3.4993e-10

Hfo_s         
	  2.500e-05  moles
	                                   Mole                     Log
	Species               Moles    Fraction    Molality    Molality

	Hfo_sOH           1.918e-05       0.767   1.918e-05      -4.717
	Hfo_sOH2+         2.945e-06       0.118   2.945e-06      -5.531
	Hfo_sO-           2.862e-06       0.114   2.862e-06      -5.543
	Hfo_sOHCa+2       1.110e-08       0.000   1.110e-08      -7.955

Hfo_w         
	  9.750e-04  moles
	                                   Mole                     Log
	Species               Moles    Fraction    Molality    Molality

	Hfo_wOH           7.484e-04       0.768   7.484e-04      -3.126
	Hfo_wOH2+         1.149e-04       0.118   1.149e-04      -3.940
	Hfo_wO-           1.117e-04       0.115   1.117e-04      -3.952
	Hfo_wOCa+         8.324e-10       0.000   8.324e-10      -9.080

Sua           
	 -8.791e-18  Surface + diffuse layer charge, eq
	  0.000e+00  Surface charge, eq
	  0.000e+00  sigma, C/m²
	  1.176e-15  psi, V
	 -4.577e-14  -F*psi/RT
	  1.000e+00  exp(-F*psi/RT)
	  1.000e+04  specific area, m²/g
	  1.000e+04  m² for   1.000e+00 g

	Water in diffuse layer: 1.000e-05 kg, 49.9% of total DDL-water.

	Total moles in diffuse layer (excluding water), Donnan calculation.
	Donnan Layer potential, psi_DL =  2.562e-05 V.
	Boltzmann factor, exp(-psi_DL * F / RT) = 9.990e-01 (= c_DL / c_free if z is +1).

	Element       	     Moles
	Ca            	  9.9801e-12
	Cl            	  1.0010e-08
	H             	  2.1019e-12
	Na            	  9.9900e-09
	O             	  1.0593e-12

Sua           
	  1.000e-03  moles
	                                   Mole                     Log
	Species               Moles    Fraction    Molality    Molality

	Sua               1.000e-03       1.000   1.000e-03      -3.000

Sub           
	 -8.791e-18  Surface + diffuse layer charge, eq
	  0.000e+00  Surface charge, eq
	  0.000e+00  sigma, C/m²
	  1.176e-15  psi, V
	 -4.577e-14  -F*psi/RT
	  1.000e+00  exp(-F*psi/RT)
	  1.000e+04  specific area, m²/g
	  1.000e+04  m² for   1.000e+00 g

	Water in diffuse layer: 1.000e-05 kg, 49.9% of total DDL-water.

	Total moles in diffuse layer (excluding water), Donnan calculation.
	Donnan Layer potential, psi_DL =  2.562e-05 V.
	Boltzmann factor, exp(-psi_DL * F / RT) = 9.990e-01 (= c_DL / c_free if z is +1).

	Element       	     Moles
	Ca            	  9.9801e-12
	Cl            	  1.0010e-08
	H             	  2.1019e-12
	Na            	  9.9900e-09
	O             	  1.0593e-12

Sub           
	  1.000e-03  moles
	                                   Mole                     Log
	Species               Moles    Fraction    Molality    Molality

	Sub               1.000e-03       1.000   1.000e-03      -3.000

-----------------------------Solution composition------------------------------

	Elements           Molality       Moles

	Ca                1.000e-06   1.000e-06
	Cl                1.000e-03   1.000e-03
	Na                1.000e-03   1.000e-03

----------------------------Description of solution----------------------------

                                       pH  =   7.000      Charge balance
                                       pe  =   4.031      Adjusted to redox equilibrium
      Specific Conductance (µS/cm,  25°C)  = 0
                          Density (g/cm³)  =   0.99710
                               Volume (L)  =   1.00297
                        Activity of water  =   1.000
                 Ionic strength (mol/kgw)  =   1.002e-03
                       Mass of water (kg)  =   1.000e+00
                 Total alkalinity (eq/kg)  =   1.453e-09
                         Temperature (°C)  =  25.00
                  Electrical balance (eq)  =   1.999e-06
 Percent error, 100*(Cat-|An|)/(Cat+|An|)  =   0.10
                               Iterations  =   0
                                  Total H  = 1.110124e+02
                                  Total O  = 5.550622e+01

----------------------------Distribution of species----------------------------

                                               Log       Log       Log    mole V
   Species          Molality    Activity  Molality  Activity     Gamma   cm³/mol

   OH-             1.049e-07   1.012e-07    -6.979    -6.995    -0.016     -4.11
   H+              1.035e-07   1.000e-07    -6.985    -7.000    -0.015      0.00
   H2O-0.01        9.113e-10   9.113e-10    -9.040    -9.040    -0.000     (0)  
   H2O             5.551e+01   1.000e+00     1.744    -0.000     0.000     18.07
Ca            1.000e-06
   Ca+2            1.000e-06   1.000e-06    -6.000    -6.000    -0.000     (0)  
   CaOH+           1.720e-12   1.660e-12   -11.765   -11.780    -0.015     (0)  
Cl            1.000e-03
   Cl-             1.000e-03   1.000e-03    -3.000    -3.000    -0.000     (0)  
H(0)          1.229e-25
   H2              6.147e-26   6.149e-26   -25.211   -25.211     0.000     28.61
Na            1.000e-03
   Na+             1.000e-03   1.000e-03    -3.000    -3.000    -0.000     (0)  
   NaOH            1.012e-20   1.012e-20   -19.995   -19.995     0.000     (0)  
O(0)          0.000e+00
   O2              0.000e+00   0.000e+00   -41.958   -41.958     0.000     30.40

------------------------------Saturation indices-------------------------------

  Phase               SI** log IAP   log K(298 K,   1 atm)

  H2(g)           -22.11    -25.21   -3.10  H2
  H2O(g)           -1.50     -0.00    1.50  H2O
  Halite           -7.57     -6.00    1.57  NaCl
  O2(g)           -39.07    -41.96   -2.89  O2

**For a gas, SI = log10(fugacity). Fugacity = pressure * phi / 1 atm.
  For ideal gases, phi = 1.

------------------
End of simulation.
------------------

------------------------------------
Reading input data for simulation 3.
------------------------------------

	PRINT
	 reset false
WARNING: Cell-lengths were read for 1 cells. Last value is used till cell 3.
WARNING: Dispersivities were read for 1 cells. Last value is used till cell 3.
WARNING: No porosities were read; used the value 3.00e-01 from -multi_D.
----------------------------------User print-----------------------------------


------------------------------Surface composition------------------------------

Diffuse Double Layer Surface-Complexation Model

Hfo           
	 -1.267e-12  Surface + diffuse layer charge, eq
	  3.336e-06  Surface charge, eq
	  6.097e-03  sigma, C/m²
	  6.530e-02  psi, V
	 -2.542e+00  -F*psi/RT
	  7.874e-02  exp(-F*psi/RT)
	  6.000e+02  specific area, m²/g
	  5.280e+01  m² for   8.800e-02 g

	Water in diffuse layer: 5.280e-08 kg,  0.3% of total DDL-water.

	Total moles in diffuse layer (excluding water), Donnan calculation.
	Donnan Layer potential, psi_DL =  2.840e-01 V.
	Boltzmann factor, exp(-psi_DL * F / RT) = 1.583e-05 (= c_DL / c_free if z is +1).

	Element       	     Moles
	Ca            	  1.4667e-23
	Cl            	  3.3356e-06
	H             	  3.4993e-10
	Na            	  8.3578e-16
	O             	  3.4993e-10

Hfo_s         
	  2.500e-05  moles
	                                   Mole                     Log
	Species               Moles    Fraction    Molality    Molality

	Hfo_sOH           1.918e-05       0.767   1.918e-05      -4.717
	Hfo_sOH2+         2.945e-06       0.118   2.945e-06      -5.531
	Hfo_sO-           2.862e-06       0.114   2.862e-06      -5.543
	Hfo_sOHCa+2       1.110e-08       0.000   1.110e-08      -7.955

Hfo_w         
	  9.750e-04  moles
	                                   Mole                     Log
	Species               Moles    Fraction    Molality    Molality

	Hfo_wOH           7.484e-04       0.768   7.484e-04      -3.126
	Hfo_wOH2+         1.149e-04       0.118   1.149e-04      -3.940
	Hfo_wO-           1.117e-04       0.115   1.117e-04      -3.952
	Hfo_wOCa+         8.324e-10       0.000   8.324e-10      -9.080

Sua           
	 -8.791e-18  Surface + diffuse layer charge, eq
	  0.000e+00  Surface charge, eq
	  0.000e+00  sigma, C/m²
	  1.176e-15  psi, V
	 -4.577e-14  -F*psi/RT
	  1.000e+00  exp(-F*psi/RT)
	  1.000e+04  specific area, m²/g
	  1.000e+04  m² for   1.000e+00 g

	Water in diffuse layer: 1.000e-05 kg, 49.9% of total DDL-water.

	Total moles in diffuse layer (excluding water), Donnan calculation.
	Donnan Layer potential, psi_DL =  2.562e-05 V.
	Boltzmann factor, exp(-psi_DL * F / RT) = 9.990e-01 (= c_DL / c_free if z is +1).

	Element       	     Moles
	Ca            	  9.9801e-12
	Cl            	  1.0010e-08
	H             	  2.1019e-12
	Na            	  9.9900e-09
	O             	  1.0593e-12

Sua           
	  1.000e-03  moles
	                                   Mole                     Log
	Species               Moles    Fraction    Molality    Molality

	Sua               1.000e-03       1.000   1.000e-03      -3.000

Sub           
	 -8.791e-18  Surface + diffuse layer charge, eq
	  0.000e+00  Surface charge, eq
	  0.000e+00  sigma, C/m²
	  1.176e-15  psi, V
	 -4.577e-14  -F*psi/RT
	  1.000e+00  exp(-F*psi/RT)
	  1.000e+04  specific area, m²/g
	  1.000e+04  m² for   1.000e+00 g

	Water in diffuse layer: 1.000e-05 kg, 49.9% of total DDL-water.

	Total moles in diffuse layer (excluding water), Donnan calculation.
	Donnan Layer potential, psi_DL =  2.562e-05 V.
	Boltzmann factor, exp(-psi_DL * F / RT) = 9.990e-01 (= c_DL / c_free if z is +1).

	Element       	     Moles
	Ca            	  9.9801e-12
	Cl            	  1.0010e-08
	H             	  2.1019e-12
	Na            	  9.9900e-09
	O             	  1.0593e-12

Sub           
	  1.000e-03  moles
	                                   Mole                     Log
	Species               Moles    Fraction    Molality    Molality

	Sub               1.000e-03       1.000   1.000e-03      -3.000

----------------------------------User print-----------------------------------


----------------------------------User print-----------------------------------


----------------------------------User print-----------------------------------


----------------------------------User print-----------------------------------


----------------------------------User print-----------------------------------


----------------------------------User print-----------------------------------


----------------------------------User print-----------------------------------


----------------------------------User print-----------------------------------

Adapting surface in            0 

------------------------------Surface composition------------------------------

Diffuse Double Layer Surface-Complexation Model

Hfo           
	 -1.267e-12  Surface + diffuse layer charge, eq
	  3.336e-06  Surface charge, eq
	  6.097e-03  sigma, C/m²
	  6.530e-02  psi, V
	 -2.542e+00  -F*psi/RT
	  7.874e-02  exp(-F*psi/RT)
	  6.000e+02  specific area, m²/g
	  5.280e+01  m² for   8.800e-02 g

	Water in diffuse layer: 5.280e-08 kg,  0.3% of total DDL-water.

	Total moles in diffuse layer (excluding water), Donnan calculation.
	Donnan Layer potential, psi_DL =  2.840e-01 V.
	Boltzmann factor, exp(-psi_DL * F / RT) = 1.583e-05 (= c_DL / c_free if z is +1).

	Element       	     Moles
	Ca            	  1.4667e-23
	Cl            	  3.3356e-06
	H             	  3.4993e-10
	Na            	  8.3578e-16
	O             	  3.4993e-10

Hfo_s         
	  2.500e-05  moles
	                                   Mole                     Log
	Species               Moles    Fraction    Molality    Molality

	Hfo_sOH           1.918e-05       0.767   1.918e-05      -4.717
	Hfo_sOH2+         2.945e-06       0.118   2.945e-06      -5.531
	Hfo_sO-           2.862e-06       0.114   2.862e-06      -5.543
	Hfo_sOHCa+2       1.110e-08       0.000   1.110e-08      -7.955

Hfo_w         
	  9.750e-04  moles
	                                   Mole                     Log
	Species               Moles    Fraction    Molality    Molality

	Hfo_wOH           7.484e-04       0.768   7.484e-04      -3.126
	Hfo_wOH2+         1.149e-04       0.118   1.149e-04      -3.940
	Hfo_wO-           1.117e-04       0.115   1.117e-04      -3.952
	Hfo_wOCa+         8.324e-10       0.000   8.324e-10      -9.080

Sua           
	 -8.791e-18  Surface + diffuse layer charge, eq
	  0.000e+00  Surface charge, eq
	  0.000e+00  sigma, C/m²
	  1.176e-15  psi, V
	 -4.577e-14  -F*psi/RT
	  1.000e+00  exp(-F*psi/RT)
	  1.000e+04  specific area, m²/g
	  1.000e+04  m² for   1.000e+00 g

	Water in diffuse layer: 1.000e-05 kg, 49.9% of total DDL-water.

	Total moles in diffuse layer (excluding water), Donnan calculation.
	Donnan Layer potential, psi_DL =  2.562e-05 V.
	Boltzmann factor, exp(-psi_DL * F / RT) = 9.990e-01 (= c_DL / c_free if z is +1).

	Element       	     Moles
	Ca            	  9.9801e-12
	Cl            	  1.0010e-08
	H             	  2.1020e-12
	Na            	  9.9900e-09
	O             	  1.0593e-12

Sua           
	  1.000e-03  moles
	                                   Mole                     Log
	Species               Moles    Fraction    Molality    Molality

	Sua               1.000e-03       1.000   1.000e-03      -3.000

Sub           
	 -8.791e-18  Surface + diffuse layer charge, eq
	  0.000e+00  Surface charge, eq
	  0.000e+00  sigma, C/m²
	  1.176e-15  psi, V
	 -4.577e-14  -F*psi/RT
	  1.000e+00  exp(-F*psi/RT)
	  1.000e+04  specific area, m²/g
	  1.000e+04  m² for   1.000e+00 g

	Water in diffuse layer: 1.000e-05 kg, 49.9% of total DDL-water.

	Total moles in diffuse layer (excluding water), Donnan calculation.
	Donnan Layer potential, psi_DL =  2.562e-05 V.
	Boltzmann factor, exp(-psi_DL * F / RT) = 9.990e-01 (= c_DL / c_free if z is +1).

	Element       	     Moles
	Ca            	  9.9801e-12
	Cl            	  1.0010e-08
	H             	  2.1020e-12
	Na            	  9.9900e-09
	O             	  1.0593e-12

Sub           
	  1.000e-03  moles
	                                   Mole                     Log
	Species               Moles    Fraction    Molality    Molality

	Sub               1.000e-03       1.000   1.000e-03      -3.000

----------------------------------User print-----------------------------------

Adapting surface in            1 

------------------------------Surface composition------------------------------

Diffuse Double Layer Surface-Complexation Model

Hfo           
	 -4.177e-14  Surface + diffuse layer charge, eq
	  3.199e-06  Surface charge, eq
	  5.849e-03  sigma, C/m²
	  7.918e-02  psi, V
	 -3.082e+00  -F*psi/RT
	  4.587e-02  exp(-F*psi/RT)
	  6.000e+02  specific area, m²/g
	  5.277e+01  m² for   8.796e-02 g

	Water in diffuse layer: 5.277e-08 kg,  0.4% of total DDL-water.

	Total moles in diffuse layer (excluding water), Donnan calculation.
	Donnan Layer potential, psi_DL =  3.008e-01 V.
	Boltzmann factor, exp(-psi_DL * F / RT) = 8.241e-06 (= c_DL / c_free if z is +1).

	Element       	     Moles
	Ca            	  2.0510e-24
	Cl            	  3.1988e-06
	H             	  3.8762e-10
	Na            	  2.1762e-16
	O             	  3.8762e-10

Hfo_s         
	  2.499e-05  moles
	                                   Mole                     Log
	Species               Moles    Fraction    Molality    Molality

	Hfo_sOH           1.918e-05       0.768   1.918e-05      -4.717
	Hfo_sOH2+         2.943e-06       0.118   2.943e-06      -5.531
	Hfo_sO-           2.863e-06       0.115   2.863e-06      -5.543
	Hfo_sOHCa+2       1.924e-09       0.000   1.924e-09      -8.716

Hfo_w         
	  9.745e-04  moles
	                                   Mole                     Log
	Species               Moles    Fraction    Molality    Molality

	Hfo_wOH           7.480e-04       0.768   7.480e-04      -3.126
	Hfo_wOH2+         1.148e-04       0.118   1.148e-04      -3.940
	Hfo_wO-           1.117e-04       0.115   1.117e-04      -3.952
	Hfo_wOCa+         1.443e-10       0.000   1.443e-10      -9.841

Sua           
	  9.821e-18  Surface + diffuse layer charge, eq
	  0.000e+00  Surface charge, eq
	  0.000e+00  sigma, C/m²
	 -3.706e-15  psi, V
	  1.442e-13  -F*psi/RT
	  1.000e+00  exp(-F*psi/RT)
	  1.000e+04  specific area, m²/g
	  4.999e+03  m² for   4.999e-01 g

	Water in diffuse layer: 4.999e-06 kg, 33.2% of total DDL-water.

	Total moles in diffuse layer (excluding water), Donnan calculation.
	Donnan Layer potential, psi_DL =  5.123e-05 V.
	Boltzmann factor, exp(-psi_DL * F / RT) = 9.980e-01 (= c_DL / c_free if z is +1).

	Element       	     Moles
	Ca            	  2.5428e-12
	Cl            	  2.5019e-09
	H             	  1.1895e-12
	Na            	  2.4963e-09
	O             	  3.0773e-13

Sua           
	  4.999e-04  moles
	                                   Mole                     Log
	Species               Moles    Fraction    Molality    Molality

	Sua               4.999e-04       1.000   4.999e-04      -3.301

Sub           
	  1.964e-17  Surface + diffuse layer charge, eq
	  0.000e+00  Surface charge, eq
	  0.000e+00  sigma, C/m²
	 -3.706e-15  psi, V
	  1.442e-13  -F*psi/RT
	  1.000e+00  exp(-F*psi/RT)
	  1.000e+04  specific area, m²/g
	  9.995e+03  m² for   9.995e-01 g

	Water in diffuse layer: 9.995e-06 kg, 66.4% of total DDL-water.

	Total moles in diffuse layer (excluding water), Donnan calculation.
	Donnan Layer potential, psi_DL =  5.123e-05 V.
	Boltzmann factor, exp(-psi_DL * F / RT) = 9.980e-01 (= c_DL / c_free if z is +1).

	Element       	     Moles
	Ca            	  5.0844e-12
	Cl            	  5.0026e-09
	H             	  2.3784e-12
	Na            	  4.9913e-09
	O             	  6.1530e-13

Sub           
	  9.995e-04  moles
	                                   Mole                     Log
	Species               Moles    Fraction    Molality    Molality

	Sub               9.995e-04       1.000   9.995e-04      -3.000

----------------------------------User print-----------------------------------

Adapting surface in            2 

------------------------------Surface composition------------------------------

Diffuse Double Layer Surface-Complexation Model

Hfo           
	 -4.889e-19  Surface + diffuse layer charge, eq
	  1.596e-14  Surface charge, eq
	  9.727e-05  sigma, C/m²
	  6.566e-02  psi, V
	 -2.556e+00  -F*psi/RT
	  7.764e-02  exp(-F*psi/RT)
	  6.000e+02  specific area, m²/g
	  1.583e-05  m² for   2.639e-08 g

	Water in diffuse layer: 1.583e-14 kg,  0.0% of total DDL-water.

	Total moles in diffuse layer (excluding water), Donnan calculation.
	Donnan Layer potential, psi_DL =  3.906e-01 V.
	Boltzmann factor, exp(-psi_DL * F / RT) = 2.494e-07 (= c_DL / c_free if z is +1).

	Element       	     Moles
	Ca            	  1.1290e-36
	Cl            	  9.5317e-15
	H             	  6.4287e-15
	Na            	  5.9175e-28
	O             	  6.4287e-15

Hfo_s         
	  7.496e-12  moles
	                                   Mole                     Log
	Species               Moles    Fraction    Molality    Molality

	Hfo_sOH           5.754e-12       0.768   5.754e-12     -11.240
	Hfo_sOH2+         8.712e-13       0.116   8.712e-13     -12.060
	Hfo_sO-           8.708e-13       0.116   8.708e-13     -12.060
	Hfo_sOHCa+2       4.847e-19       0.000   4.847e-19     -18.315

Hfo_w         
	  2.924e-10  moles
	                                   Mole                     Log
	Species               Moles    Fraction    Molality    Molality

	Hfo_wOH           2.244e-10       0.768   2.244e-10      -9.649
	Hfo_wOH2+         3.398e-11       0.116   3.398e-11     -10.469
	Hfo_wO-           3.396e-11       0.116   3.396e-11     -10.469
	Hfo_wOCa+         3.685e-20       0.000   3.685e-20     -19.434

Sua           
	  3.953e-22  Surface + diffuse layer charge, eq
	  0.000e+00  Surface charge, eq
	  0.000e+00  sigma, C/m²
	 -4.086e-14  psi, V
	  1.591e-12  -F*psi/RT
	  1.000e+00  exp(-F*psi/RT)
	  1.000e+04  specific area, m²/g
	  1.500e+00  m² for   1.500e-04 g

	Water in diffuse layer: 1.500e-09 kg, 99.8% of total DDL-water.

	Total moles in diffuse layer (excluding water), Donnan calculation.
	Donnan Layer potential, psi_DL = -6.276e-05 V.
	Boltzmann factor, exp(-psi_DL * F / RT) = 1.002e+00 (= c_DL / c_free if z is +1).

	Element       	     Moles
	Ca            	  2.2568e-19
	Cl            	  2.2470e-16
	H             	  3.0475e-16
	Na            	  2.2535e-16
	O             	  1.5292e-16

Sua           
	  1.500e-07  moles
	                                   Mole                     Log
	Species               Moles    Fraction    Molality    Molality

	Sua               1.500e-07       1.000   1.500e-07      -6.824

Sub           
	  7.902e-25  Surface + diffuse layer charge, eq
	  0.000e+00  Surface charge, eq
	  0.000e+00  sigma, C/m²
	 -4.086e-14  psi, V
	  1.591e-12  -F*psi/RT
	  1.000e+00  exp(-F*psi/RT)
	  1.000e+04  specific area, m²/g
	  2.999e-03  m² for   2.999e-07 g

	Water in diffuse layer: 2.999e-12 kg,  0.2% of total DDL-water.

	Total moles in diffuse layer (excluding water), Donnan calculation.
	Donnan Layer potential, psi_DL = -6.276e-05 V.
	Boltzmann factor, exp(-psi_DL * F / RT) = 1.002e+00 (= c_DL / c_free if z is +1).

	Element       	     Moles
	Ca            	  4.5111e-22
	Cl            	  4.4915e-19
	H             	  6.0917e-19
	Na            	  4.5045e-19
	O             	  3.0567e-19

Sub           
	  2.999e-10  moles
	                                   Mole                     Log
	Species               Moles    Fraction    Molality    Molality

	Sub               2.999e-10       1.000   2.999e-10      -9.523

----------------------------------User print-----------------------------------

Adapting surface in            3 

----------------------------------User print-----------------------------------

Adapting surface in            4 

----------------------------------User print-----------------------------------

Adapting surface in            5 

------------------------------Surface composition------------------------------

Diffuse Double Layer Surface-Complexation Model

Hfo           
	  2.088e-15  Surface + diffuse layer charge, eq
	  1.180e-09  Surface charge, eq
	  4.312e-03  sigma, C/m²
	  6.532e-02  psi, V
	 -2.542e+00  -F*psi/RT
	  7.868e-02  exp(-F*psi/RT)
	  6.000e+02  specific area, m²/g
	  2.640e-02  m² for   4.400e-05 g

	Water in diffuse layer: 2.640e-11 kg,  0.0% of total DDL-water.

	Total moles in diffuse layer (excluding water), Donnan calculation.
	Donnan Layer potential, psi_DL =  2.929e-01 V.
	Boltzmann factor, exp(-psi_DL * F / RT) = 1.120e-05 (= c_DL / c_free if z is +1).

	Element       	     Moles
	Ca            	  1.9031e-27
	Cl            	  1.1795e-09
	H             	  2.4564e-13
	Na            	  1.4761e-19
	O             	  2.4564e-13

Hfo_s         
	  1.250e-08  moles
	                                   Mole                     Log
	Species               Moles    Fraction    Molality    Molality

	Hfo_sOH           9.593e-09       0.767   9.593e-09      -8.018
	Hfo_sOH2+         1.467e-09       0.117   1.467e-09      -8.834
	Hfo_sO-           1.437e-09       0.115   1.437e-09      -8.842
	Hfo_sOHCa+2       2.765e-12       0.000   2.765e-12     -11.558

Hfo_w         
	  4.875e-07  moles
	                                   Mole                     Log
	Species               Moles    Fraction    Molality    Molality

	Hfo_wOH           3.742e-07       0.768   3.742e-07      -6.427
	Hfo_wOH2+         5.721e-08       0.117   5.721e-08      -7.243
	Hfo_wO-           5.607e-08       0.115   5.607e-08      -7.251
	Hfo_wOCa+         2.082e-13       0.000   2.082e-13     -12.682

Sua           
	 -6.198e-21  Surface + diffuse layer charge, eq
	  0.000e+00  Surface charge, eq
	  0.000e+00  sigma, C/m²
	 -3.711e-19  psi, V
	  1.444e-17  -F*psi/RT
	  1.000e+00  exp(-F*psi/RT)
	  1.000e+04  specific area, m²/g
	  4.998e+03  m² for   4.998e-01 g

	Water in diffuse layer: 4.998e-06 kg, 99.9% of total DDL-water.

	Total moles in diffuse layer (excluding water), Donnan calculation.
	Donnan Layer potential, psi_DL = -3.143e-08 V.
	Boltzmann factor, exp(-psi_DL * F / RT) = 1.000e+00 (= c_DL / c_free if z is +1).

	Element       	     Moles
	Ca            	  2.4933e-12
	Cl            	  2.5008e-09
	H             	  1.0405e-12
	Na            	  2.4958e-09
	O             	  5.2537e-13

Sua           
	  4.998e-04  moles
	                                   Mole                     Log
	Species               Moles    Fraction    Molality    Molality

	Sua               4.998e-04       1.000   4.998e-04      -3.301

Sub           
	 -7.181e-24  Surface + diffuse layer charge, eq
	  0.000e+00  Surface charge, eq
	  0.000e+00  sigma, C/m²
	 -4.068e-22  psi, V
	  1.583e-20  -F*psi/RT
	  1.000e+00  exp(-F*psi/RT)
	  1.000e+04  specific area, m²/g
	  5.000e+00  m² for   5.000e-04 g

	Water in diffuse layer: 5.000e-09 kg,  0.1% of total DDL-water.

	Total moles in diffuse layer (excluding water), Donnan calculation.
	Donnan Layer potential, psi_DL = -3.143e-08 V.
	Boltzmann factor, exp(-psi_DL * F / RT) = 1.000e+00 (= c_DL / c_free if z is +1).

	Element       	     Moles
	Ca            	  2.4941e-15
	Cl            	  2.5015e-12
	H             	  1.0408e-15
	Na            	  2.4965e-12
	O             	  5.2553e-16

Sub           
	  5.000e-07  moles
	                                   Mole                     Log
	Species               Moles    Fraction    Molality    Molality

	Sub               5.000e-07       1.000   5.000e-07      -6.301

----------------------------------User print-----------------------------------

Adapting surface in            6 

------------------------------Surface composition------------------------------

Diffuse Double Layer Surface-Complexation Model

Hfo           
	  7.984e-18  Surface + diffuse layer charge, eq
	  7.984e-18  Surface charge, eq
	  9.728e-05  sigma, C/m²
	  6.566e-02  psi, V
	 -2.556e+00  -F*psi/RT
	  7.764e-02  exp(-F*psi/RT)
	  6.000e+02  specific area, m²/g
	  7.920e-09  m² for   1.320e-11 g

	Water in diffuse layer: 7.920e-18 kg,  0.0% of total DDL-water.

	Total moles in diffuse layer (excluding water), Donnan calculation.
	Donnan Layer potential, psi_DL =  3.906e-01 V.
	Boltzmann factor, exp(-psi_DL * F / RT) = 2.494e-07 (= c_DL / c_free if z is +1).

	Element       	     Moles
	Ca            	  5.6507e-40
	Cl            	  4.7677e-18
	H             	  3.2159e-18
	Na            	  2.9597e-31
	O             	  3.2159e-18

Hfo_s         
	  3.757e-15  moles
	                                   Mole                     Log
	Species               Moles    Fraction    Molality    Molality

	Hfo_sOH           2.890e-15       0.769   2.890e-15     -14.539
	Hfo_sOH2+         4.375e-16       0.116   4.375e-16     -15.359
	Hfo_sO-           4.373e-16       0.116   4.373e-16     -15.359
	Hfo_sOHCa+2       2.434e-22       0.000   2.434e-22     -21.614

Hfo_w         
	  1.462e-13  moles
	                                   Mole                     Log
	Species               Moles    Fraction    Molality    Molality

	Hfo_wOH           1.123e-13       0.768   1.123e-13     -12.950
	Hfo_wOH2+         1.700e-14       0.116   1.700e-14     -13.770
	Hfo_wO-           1.699e-14       0.116   1.699e-14     -13.770
	Hfo_wOCa+         1.843e-23       0.000   1.843e-23     -22.734

Sua           
	 -1.838e-18  Surface + diffuse layer charge, eq
	  0.000e+00  Surface charge, eq
	  0.000e+00  sigma, C/m²
	  2.423e-23  psi, V
	 -9.430e-22  -F*psi/RT
	  1.000e+00  exp(-F*psi/RT)
	  1.000e+04  specific area, m²/g
	  1.500e+00  m² for   1.500e-04 g

	Water in diffuse layer: 1.500e-09 kg, 100.0% of total DDL-water.

	Total moles in diffuse layer (excluding water), Donnan calculation.
	Donnan Layer potential, psi_DL = -6.273e-05 V.
	Boltzmann factor, exp(-psi_DL * F / RT) = 1.002e+00 (= c_DL / c_free if z is +1).

	Element       	     Moles
	Ca            	  2.2563e-19
	Cl            	  2.2466e-16
	H             	  3.0472e-16
	Na            	  2.2531e-16
	O             	  1.5290e-16

Sua           
	  1.500e-07  moles
	                                   Mole                     Log
	Species               Moles    Fraction    Molality    Molality

	Sua               1.500e-07       1.000   1.500e-07      -6.824

Sub           
	 -1.838e-24  Surface + diffuse layer charge, eq
	  0.000e+00  Surface charge, eq
	  0.000e+00  sigma, C/m²
	  1.713e-23  psi, V
	 -6.668e-22  -F*psi/RT
	  1.000e+00  exp(-F*psi/RT)
	  1.000e+04  specific area, m²/g
	  1.500e-06  m² for   1.500e-10 g

	Water in diffuse layer: 1.500e-15 kg,  0.0% of total DDL-water.

	Total moles in diffuse layer (excluding water), Donnan calculation.
	Donnan Layer potential, psi_DL = -6.273e-05 V.
	Boltzmann factor, exp(-psi_DL * F / RT) = 1.002e+00 (= c_DL / c_free if z is +1).

	Element       	     Moles
	Ca            	  2.2563e-25
	Cl            	  2.2466e-22
	H             	  3.0472e-22
	Na            	  2.2531e-22
	O             	  1.5290e-22

Sub           
	  1.500e-13  moles
	                                   Mole                     Log
	Species               Moles    Fraction    Molality    Molality

	Sub               1.500e-13       1.000   1.500e-13     -12.824

----------------------------------User print-----------------------------------

Adapting surface in            7 

WARNING: MCD found more than 1 fixed surface with a DDL,
	 uses the 1st in alphabetical order: Sorbedhfo.
----------------------------------User print-----------------------------------

Adapting surface in            0 

------------------------------Surface composition------------------------------

Diffuse Double Layer Surface-Complexation Model

Hfo           
	 -1.267e-12  Surface + diffuse layer charge, eq
	  3.336e-06  Surface charge, eq
	  6.097e-03  sigma, C/m²
	  6.530e-02  psi, V
	 -2.542e+00  -F*psi/RT
	  7.874e-02  exp(-F*psi/RT)
	  6.000e+02  specific area, m²/g
	  5.280e+01  m² for   8.800e-02 g

	Water in diffuse layer: 5.280e-08 kg,  0.3% of total DDL-water.

	Total moles in diffuse layer (excluding water), Donnan calculation.
	Donnan Layer potential, psi_DL =  2.840e-01 V.
	Boltzmann factor, exp(-psi_DL * F / RT) = 1.583e-05 (= c_DL / c_free if z is +1).

	Element       	     Moles
	Ca            	  1.4667e-23
	Cl            	  3.3356e-06
	H             	  3.4993e-10
	Na            	  8.3578e-16
	O             	  3.4993e-10

Hfo_s         
	  2.500e-05  moles
	                                   Mole                     Log
	Species               Moles    Fraction    Molality    Molality

	Hfo_sOH           1.918e-05       0.767   1.918e-05      -4.717
	Hfo_sOH2+         2.945e-06       0.118   2.945e-06      -5.531
	Hfo_sO-           2.862e-06       0.114   2.862e-06      -5.543
	Hfo_sOHCa+2       1.110e-08       0.000   1.110e-08      -7.955

Hfo_w         
	  9.750e-04  moles
	                                   Mole                     Log
	Species               Moles    Fraction    Molality    Molality

	Hfo_wOH           7.484e-04       0.768   7.484e-04      -3.126
	Hfo_wOH2+         1.149e-04       0.118   1.149e-04      -3.940
	Hfo_wO-           1.117e-04       0.115   1.117e-04      -3.952
	Hfo_wOCa+         8.324e-10       0.000   8.324e-10      -9.080

Sua           
	 -8.791e-18  Surface + diffuse layer charge, eq
	  0.000e+00  Surface charge, eq
	  0.000e+00  sigma, C/m²
	  1.176e-15  psi, V
	 -4.577e-14  -F*psi/RT
	  1.000e+00  exp(-F*psi/RT)
	  1.000e+04  specific area, m²/g
	  1.000e+04  m² for   1.000e+00 g

	Water in diffuse layer: 1.000e-05 kg, 49.9% of total DDL-water.

	Total moles in diffuse layer (excluding water), Donnan calculation.
	Donnan Layer potential, psi_DL =  2.562e-05 V.
	Boltzmann factor, exp(-psi_DL * F / RT) = 9.990e-01 (= c_DL / c_free if z is +1).

	Element       	     Moles
	Ca            	  9.9801e-12
	Cl            	  1.0010e-08
	H             	  2.1020e-12
	Na            	  9.9900e-09
	O             	  1.0593e-12

Sua           
	  1.000e-03  moles
	                                   Mole                     Log
	Species               Moles    Fraction    Molality    Molality

	Sua               1.000e-03       1.000   1.000e-03      -3.000

Sub           
	 -8.791e-18  Surface + diffuse layer charge, eq
	  0.000e+00  Surface charge, eq
	  0.000e+00  sigma, C/m²
	  1.176e-15  psi, V
	 -4.577e-14  -F*psi/RT
	  1.000e+00  exp(-F*psi/RT)
	  1.000e+04  specific area, m²/g
	  1.000e+04  m² for   1.000e+00 g

	Water in diffuse layer: 1.000e-05 kg, 49.9% of total DDL-water.

	Total moles in diffuse layer (excluding water), Donnan calculation.
	Donnan Layer potential, psi_DL =  2.562e-05 V.
	Boltzmann factor, exp(-psi_DL * F / RT) = 9.990e-01 (= c_DL / c_free if z is +1).

	Element       	     Moles
	Ca            	  9.9801e-12
	Cl            	  1.0010e-08
	H             	  2.1020e-12
	Na            	  9.9900e-09
	O             	  1.0593e-12

Sub           
	  1.000e-03  moles
	                                   Mole                     Log
	Species               Moles    Fraction    Molality    Molality

	Sub               1.000e-03       1.000   1.000e-03      -3.000

----------------------------------User print-----------------------------------

Adapting surface in            1 

------------------------------Surface composition------------------------------

Diffuse Double Layer Surface-Complexation Model

Hfo           
	 -6.271e-14  Surface + diffuse layer charge, eq
	  3.262e-06  Surface charge, eq
	  5.965e-03  sigma, C/m²
	  7.074e-02  psi, V
	 -2.753e+00  -F*psi/RT
	  6.371e-02  exp(-F*psi/RT)
	  6.000e+02  specific area, m²/g
	  5.277e+01  m² for   8.796e-02 g

	Water in diffuse layer: 5.277e-08 kg,  0.2% of total DDL-water.

	Total moles in diffuse layer (excluding water), Donnan calculation.
	Donnan Layer potential, psi_DL =  2.908e-01 V.
	Boltzmann factor, exp(-psi_DL * F / RT) = 1.213e-05 (= c_DL / c_free if z is +1).

	Element       	     Moles
	Ca            	  6.5491e-24
	Cl            	  3.2620e-06
	H             	  3.6774e-10
	Na            	  4.8010e-16
	O             	  3.6774e-10

Hfo_s         
	  2.499e-05  moles
	                                   Mole                     Log
	Species               Moles    Fraction    Molality    Molality

	Hfo_sOH           1.918e-05       0.767   1.918e-05      -4.717
	Hfo_sOH2+         2.943e-06       0.118   2.943e-06      -5.531
	Hfo_sO-           2.862e-06       0.115   2.862e-06      -5.543
	Hfo_sOHCa+2       5.500e-09       0.000   5.500e-09      -8.260

Hfo_w         
	  9.745e-04  moles
	                                   Mole                     Log
	Species               Moles    Fraction    Molality    Molality

	Hfo_wOH           7.480e-04       0.768   7.480e-04      -3.126
	Hfo_wOH2+         1.148e-04       0.118   1.148e-04      -3.940
	Hfo_wO-           1.116e-04       0.115   1.116e-04      -3.952
	Hfo_wOCa+         4.125e-10       0.000   4.125e-10      -9.385

Sorbedhfo     
	 -3.136e-14  Surface + diffuse layer charge, eq
	  1.631e-06  Surface charge, eq
	  5.965e-03  sigma, C/m²
	  7.074e-02  psi, V
	 -2.753e+00  -F*psi/RT
	  6.371e-02  exp(-F*psi/RT)
	  6.000e+02  specific area, m²/g
	  2.639e+01  m² for   4.398e-02 g

	Water in diffuse layer: 2.639e-08 kg,  0.1% of total DDL-water.

	Total moles in diffuse layer (excluding water), Donnan calculation.
	Donnan Layer potential, psi_DL =  2.908e-01 V.
	Boltzmann factor, exp(-psi_DL * F / RT) = 1.213e-05 (= c_DL / c_free if z is +1).

	Element       	     Moles
	Ca            	  3.2746e-24
	Cl            	  1.6310e-06
	H             	  1.8387e-10
	Na            	  2.4005e-16
	O             	  1.8387e-10

Sorbedhfo_s   
	  1.249e-05  moles
	                                   Mole                     Log
	Species               Moles    Fraction    Molality    Molality

	Sorbedhfo_sOH     9.588e-06       0.767   9.588e-06      -5.018
	Sorbedhfo_sOH2+   1.472e-06       0.118   1.472e-06      -5.832
	Sorbedhfo_sO-     1.431e-06       0.115   1.431e-06      -5.844
	Sorbedhfo_sOHCa+2   2.750e-09       0.000   2.750e-09      -8.561

Sorbedhfo_w   
	  4.873e-04  moles
	                                   Mole                     Log
	Species               Moles    Fraction    Molality    Molality

	Sorbedhfo_wOH     3.740e-04       0.768   3.740e-04      -3.427
	Sorbedhfo_wOH2+   5.741e-05       0.118   5.741e-05      -4.241
	Sorbedhfo_wO-     5.582e-05       0.115   5.582e-05      -4.253
	Sorbedhfo_wOCa+   2.063e-10       0.000   2.063e-10      -9.686

Sua           
	  2.134e-17  Surface + diffuse layer charge, eq
	  0.000e+00  Surface charge, eq
	  0.000e+00  sigma, C/m²
	 -4.385e-15  psi, V
	  1.707e-13  -F*psi/RT
	  1.000e+00  exp(-F*psi/RT)
	  1.000e+04  specific area, m²/g
	  7.498e+03  m² for   7.498e-01 g

	Water in diffuse layer: 7.498e-06 kg, 23.0% of total DDL-water.

	Total moles in diffuse layer (excluding water), Donnan calculation.
	Donnan Layer potential, psi_DL =  3.416e-05 V.
	Boltzmann factor, exp(-psi_DL * F / RT) = 9.987e-01 (= c_DL / c_free if z is +1).

	Element       	     Moles
	Ca            	  5.6620e-12
	Cl            	  5.6282e-09
	H             	  1.6013e-12
	Na            	  5.6166e-09
	O             	  6.4130e-13

Sua           
	  7.498e-04  moles
	                                   Mole                     Log
	Species               Moles    Fraction    Molality    Molality

	Sua               7.498e-04       1.000   7.498e-04      -3.125

Sub           
	  7.114e-17  Surface + diffuse layer charge, eq
	  0.000e+00  Surface charge, eq
	  0.000e+00  sigma, C/m²
	 -4.385e-15  psi, V
	  1.707e-13  -F*psi/RT
	  1.000e+00  exp(-F*psi/RT)
	  1.000e+04  specific area, m²/g
	  2.499e+04  m² for   2.499e+00 g

	Water in diffuse layer: 2.499e-05 kg, 76.7% of total DDL-water.

	Total moles in diffuse layer (excluding water), Donnan calculation.
	Donnan Layer potential, psi_DL =  3.416e-05 V.
	Boltzmann factor, exp(-psi_DL * F / RT) = 9.987e-01 (= c_DL / c_free if z is +1).

	Element       	     Moles
	Ca            	  1.8874e-11
	Cl            	  1.8762e-08
	H             	  5.3378e-12
	Na            	  1.8723e-08
	O             	  2.1378e-12

Sub           
	  2.499e-03  moles
	                                   Mole                     Log
	Species               Moles    Fraction    Molality    Molality

	Sub               2.499e-03       1.000   2.499e-03      -2.602

----------------------------------User print-----------------------------------

Adapting surface in            2 

------------------------------Surface composition------------------------------

Diffuse Double Layer Surface-Complexation Model

Hfo           
	 -9.475e-16  Surface + diffuse layer charge, eq
	  1.148e-06  Surface charge, eq
	  4.199e-03  sigma, C/m²
	  7.985e-02  psi, V
	 -3.108e+00  -F*psi/RT
	  4.469e-02  exp(-F*psi/RT)
	  6.000e+02  specific area, m²/g
	  2.637e+01  m² for   4.396e-02 g

	Water in diffuse layer: 2.637e-08 kg, 87.5% of total DDL-water.

	Total moles in diffuse layer (excluding water), Donnan calculation.
	Donnan Layer potential, psi_DL =  3.101e-01 V.
	Boltzmann factor, exp(-psi_DL * F / RT) = 5.737e-06 (= c_DL / c_free if z is +1).

	Element       	     Moles
	Ca            	  2.6097e-25
	Cl            	  1.1474e-06
	H             	  2.7012e-10
	Na            	  3.7974e-17
	O             	  2.7012e-10

Hfo_s         
	  1.249e-05  moles
	                                   Mole                     Log
	Species               Moles    Fraction    Molality    Molality

	Hfo_sOH           9.585e-06       0.768   9.585e-06      -5.018
	Hfo_sOH2+         1.465e-06       0.117   1.465e-06      -5.834
	Hfo_sO-           1.437e-06       0.115   1.437e-06      -5.843
	Hfo_sOHCa+2       4.599e-10       0.000   4.599e-10      -9.337

Hfo_w         
	  4.870e-04  moles
	                                   Mole                     Log
	Species               Moles    Fraction    Molality    Molality

	Hfo_wOH           3.738e-04       0.768   3.738e-04      -3.427
	Hfo_wOH2+         5.714e-05       0.117   5.714e-05      -4.243
	Hfo_wO-           5.603e-05       0.115   5.603e-05      -4.252
	Hfo_wOCa+         3.463e-11       0.000   3.463e-11     -10.461

Sorbedhfo     
	 -2.843e-22  Surface + diffuse layer charge, eq
	  3.445e-13  Surface charge, eq
	  4.199e-03  sigma, C/m²
	  7.985e-02  psi, V
	 -3.108e+00  -F*psi/RT
	  4.469e-02  exp(-F*psi/RT)
	  6.000e+02  specific area, m²/g
	  7.916e-06  m² for   1.319e-08 g

	Water in diffuse layer: 7.916e-15 kg,  0.0% of total DDL-water.

	Total moles in diffuse layer (excluding water), Donnan calculation.
	Donnan Layer potential, psi_DL =  3.101e-01 V.
	Boltzmann factor, exp(-psi_DL * F / RT) = 5.737e-06 (= c_DL / c_free if z is +1).

	Element       	     Moles
	Ca            	  7.8332e-32
	Cl            	  3.4440e-13
	H             	  8.1077e-17
	Na            	  1.1398e-23
	O             	  8.1077e-17

Sorbedhfo_s   
	  3.748e-12  moles
	                                   Mole                     Log
	Species               Moles    Fraction    Molality    Molality

	Sorbedhfo_sOH     2.877e-12       0.768   2.877e-12     -11.541
	Sorbedhfo_sOH2+   4.398e-13       0.117   4.398e-13     -12.357
	Sorbedhfo_sO-     4.312e-13       0.115   4.312e-13     -12.365
	Sorbedhfo_sOHCa+2   1.380e-16       0.000   1.380e-16     -15.860

Sorbedhfo_w   
	  1.462e-10  moles
	                                   Mole                     Log
	Species               Moles    Fraction    Molality    Molality

	Sorbedhfo_wOH     1.122e-10       0.768   1.122e-10      -9.950
	Sorbedhfo_wOH2+   1.715e-11       0.117   1.715e-11     -10.766
	Sorbedhfo_wO-     1.682e-11       0.115   1.682e-11     -10.774
	Sorbedhfo_wOCa+   1.039e-17       0.000   1.039e-17     -16.983

Sua           
	  1.223e-21  Surface + diffuse layer charge, eq
	  0.000e+00  Surface charge, eq
	  0.000e+00  sigma, C/m²
	 -1.439e-15  psi, V
	  5.603e-14  -F*psi/RT
	  1.000e+00  exp(-F*psi/RT)
	  1.000e+04  specific area, m²/g
	  2.250e+00  m² for   2.250e-04 g

	Water in diffuse layer: 2.250e-09 kg,  7.5% of total DDL-water.

	Total moles in diffuse layer (excluding water), Donnan calculation.
	Donnan Layer potential, psi_DL =  1.023e-04 V.
	Boltzmann factor, exp(-psi_DL * F / RT) = 9.960e-01 (= c_DL / c_free if z is +1).

	Element       	     Moles
	Ca            	  5.7456e-16
	Cl            	  5.6386e-13
	H             	  5.3690e-16
	Na            	  5.6244e-13
	O             	  1.3473e-16

Sua           
	  2.250e-07  moles
	                                   Mole                     Log
	Species               Moles    Fraction    Molality    Molality

	Sua               2.250e-07       1.000   2.250e-07      -6.648

Sub           
	  8.172e-22  Surface + diffuse layer charge, eq
	  0.000e+00  Surface charge, eq
	  0.000e+00  sigma, C/m²
	 -1.439e-15  psi, V
	  5.603e-14  -F*psi/RT
	  1.000e+00  exp(-F*psi/RT)
	  1.000e+04  specific area, m²/g
	  1.503e+00  m² for   1.503e-04 g

	Water in diffuse layer: 1.503e-09 kg,  5.0% of total DDL-water.

	Total moles in diffuse layer (excluding water), Donnan calculation.
	Donnan Layer potential, psi_DL =  1.023e-04 V.
	Boltzmann factor, exp(-psi_DL * F / RT) = 9.960e-01 (= c_DL / c_free if z is +1).

	Element       	     Moles
	Ca            	  3.8382e-16
	Cl            	  3.7667e-13
	H             	  3.5866e-16
	Na            	  3.7572e-13
	O             	  9.0003e-17

Sub           
	  1.503e-07  moles
	                                   Mole                     Log
	Species               Moles    Fraction    Molality    Molality

	Sub               1.503e-07       1.000   1.503e-07      -6.823

----------------------------------User print-----------------------------------

Adapting surface in            3 

------------------------------Surface composition------------------------------

Diffuse Double Layer Surface-Complexation Model

Hfo           
	  8.300e-18  Surface + diffuse layer charge, eq
	  1.596e-14  Surface charge, eq
	  9.732e-05  sigma, C/m²
	  6.566e-02  psi, V
	 -2.556e+00  -F*psi/RT
	  7.765e-02  exp(-F*psi/RT)
	  6.000e+02  specific area, m²/g
	  1.582e-05  m² for   2.637e-08 g

	Water in diffuse layer: 1.582e-14 kg, 99.9% of total DDL-water.

	Total moles in diffuse layer (excluding water), Donnan calculation.
	Donnan Layer potential, psi_DL =  3.906e-01 V.
	Boltzmann factor, exp(-psi_DL * F / RT) = 2.494e-07 (= c_DL / c_free if z is +1).

	Element       	     Moles
	Ca            	  1.1395e-36
	Cl            	  9.5252e-15
	H             	  6.4260e-15
	Na            	  5.9134e-28
	O             	  6.4260e-15

Hfo_s         
	  7.493e-12  moles
	                                   Mole                     Log
	Species               Moles    Fraction    Molality    Molality

	Hfo_sOH           5.751e-12       0.768   5.751e-12     -11.240
	Hfo_sOH2+         8.707e-13       0.116   8.707e-13     -12.060
	Hfo_sO-           8.703e-13       0.116   8.703e-13     -12.060
	Hfo_sOHCa+2       4.892e-19       0.000   4.892e-19     -18.311

Hfo_w         
	  2.922e-10  moles
	                                   Mole                     Log
	Species               Moles    Fraction    Molality    Molality

	Hfo_wOH           2.243e-10       0.768   2.243e-10      -9.649
	Hfo_wOH2+         3.396e-11       0.116   3.396e-11     -10.469
	Hfo_wO-           3.394e-11       0.116   3.394e-11     -10.469
	Hfo_wOCa+         3.719e-20       0.000   3.719e-20     -19.430

Sua           
	  4.148e-27  Surface + diffuse layer charge, eq
	  0.000e+00  Surface charge, eq
	  0.000e+00  sigma, C/m²
	 -2.335e-11  psi, V
	  9.089e-10  -F*psi/RT
	  1.000e+00  exp(-F*psi/RT)
	  1.000e+04  specific area, m²/g
	  1.500e-08  m² for   1.500e-12 g

	Water in diffuse layer: 1.500e-17 kg,  0.1% of total DDL-water.

	Total moles in diffuse layer (excluding water), Donnan calculation.
	Donnan Layer potential, psi_DL = -7.691e-05 V.
	Boltzmann factor, exp(-psi_DL * F / RT) = 1.003e+00 (= c_DL / c_free if z is +1).

	Element       	     Moles
	Ca            	  2.2807e-27
	Cl            	  2.2447e-24
	H             	  3.0467e-24
	Na            	  2.2538e-24
	O             	  1.5280e-24

Sua           
	  1.500e-15  moles
	                                   Mole                     Log
	Species               Moles    Fraction    Molality    Molality

	Sua               1.500e-15       1.000   1.500e-15     -14.824

----------------------------------User print-----------------------------------

Adapting surface in            4 

----------------------------------User print-----------------------------------

Adapting surface in            5 

------------------------------Surface composition------------------------------

Diffuse Double Layer Surface-Complexation Model

Hfo           
	  7.798e-15  Surface + diffuse layer charge, eq
	  2.792e-09  Surface charge, eq
	  5.104e-03  sigma, C/m²
	  6.382e-02  psi, V
	 -2.484e+00  -F*psi/RT
	  8.338e-02  exp(-F*psi/RT)
	  6.000e+02  specific area, m²/g
	  5.278e-02  m² for   8.797e-05 g

	Water in diffuse layer: 5.278e-11 kg,  0.0% of total DDL-water.

	Total moles in diffuse layer (excluding water), Donnan calculation.
	Donnan Layer potential, psi_DL =  2.868e-01 V.
	Boltzmann factor, exp(-psi_DL * F / RT) = 1.419e-05 (= c_DL / c_free if z is +1).

	Element       	     Moles
	Ca            	  8.9410e-27
	Cl            	  2.7917e-09
	H             	  4.1226e-13
	Na            	  5.6112e-19
	O             	  4.1226e-13

Hfo_s         
	  2.499e-08  moles
	                                   Mole                     Log
	Species               Moles    Fraction    Molality    Molality

	Hfo_sOH           1.918e-08       0.767   1.918e-08      -7.717
	Hfo_sOH2+         2.938e-09       0.118   2.938e-09      -8.532
	Hfo_sO-           2.868e-09       0.115   2.868e-09      -8.542
	Hfo_sOHCa+2       9.278e-12       0.000   9.278e-12     -11.033

Hfo_w         
	  9.747e-07  moles
	                                   Mole                     Log
	Species               Moles    Fraction    Molality    Molality

	Hfo_wOH           7.482e-07       0.768   7.482e-07      -6.126
	Hfo_wOH2+         1.146e-07       0.118   1.146e-07      -6.941
	Hfo_wO-           1.119e-07       0.115   1.119e-07      -6.951
	Hfo_wOCa+         6.974e-13       0.000   6.974e-13     -12.156

Sua           
	 -2.909e-20  Surface + diffuse layer charge, eq
	  0.000e+00  Surface charge, eq
	  0.000e+00  sigma, C/m²
	  2.460e-18  psi, V
	 -9.576e-17  -F*psi/RT
	  1.000e+00  exp(-F*psi/RT)
	  1.000e+04  specific area, m²/g
	  7.498e+03  m² for   7.498e-01 g

	Water in diffuse layer: 7.498e-06 kg, 99.9% of total DDL-water.

	Total moles in diffuse layer (excluding water), Donnan calculation.
	Donnan Layer potential, psi_DL = -2.095e-08 V.
	Boltzmann factor, exp(-psi_DL * F / RT) = 1.000e+00 (= c_DL / c_free if z is +1).

	Element       	     Moles
	Ca            	  5.5903e-12
	Cl            	  5.6273e-09
	H             	  1.5724e-12
	Na            	  5.6163e-09
	O             	  8.3787e-13

Sua           
	  7.498e-04  moles
	                                   Mole                     Log
	Species               Moles    Fraction    Molality    Molality

	Sua               7.498e-04       1.000   7.498e-04      -3.125

Sub           
	 -2.128e-23  Surface + diffuse layer charge, eq
	  0.000e+00  Surface charge, eq
	  0.000e+00  sigma, C/m²
	  3.045e-18  psi, V
	 -1.185e-16  -F*psi/RT
	  1.000e+00  exp(-F*psi/RT)
	  1.000e+04  specific area, m²/g
	  4.997e+00  m² for   4.997e-04 g

	Water in diffuse layer: 4.997e-09 kg,  0.1% of total DDL-water.

	Total moles in diffuse layer (excluding water), Donnan calculation.
	Donnan Layer potential, psi_DL = -2.095e-08 V.
	Boltzmann factor, exp(-psi_DL * F / RT) = 1.000e+00 (= c_DL / c_free if z is +1).

	Element       	     Moles
	Ca            	  3.7260e-15
	Cl            	  3.7508e-12
	H             	  1.0481e-15
	Na            	  3.7434e-12
	O             	  5.5846e-16

Sub           
	  4.997e-07  moles
	                                   Mole                     Log
	Species               Moles    Fraction    Molality    Molality

	Sub               4.997e-07       1.000   4.997e-07      -6.301

----------------------------------User print-----------------------------------

Adapting surface in            6 

------------------------------Surface composition------------------------------

Diffuse Double Layer Surface-Complexation Model

Hfo           
	  2.710e-15  Surface + diffuse layer charge, eq
	  9.509e-10  Surface charge, eq
	  6.955e-03  sigma, C/m²
	  1.043e-01  psi, V
	 -4.061e+00  -F*psi/RT
	  1.723e-02  exp(-F*psi/RT)
	  6.000e+02  specific area, m²/g
	  1.319e-02  m² for   2.199e-05 g

	Water in diffuse layer: 1.319e-11 kg,  0.6% of total DDL-water.

	Total moles in diffuse layer (excluding water), Donnan calculation.
	Donnan Layer potential, psi_DL =  3.229e-01 V.
	Boltzmann factor, exp(-psi_DL * F / RT) = 3.476e-06 (= c_DL / c_free if z is +1).

	Element       	     Moles
	Ca            	  4.4785e-29
	Cl            	  9.5085e-10
	H             	  8.5431e-14
	Na            	  1.1444e-20
	O             	  8.5431e-14

Hfo_s         
	  6.247e-09  moles
	                                   Mole                     Log
	Species               Moles    Fraction    Molality    Molality

	Hfo_sOH           4.795e-09       0.768   4.795e-09      -8.319
	Hfo_sOH2+         7.377e-10       0.118   7.377e-10      -9.132
	Hfo_sO-           7.139e-10       0.114   7.139e-10      -9.146
	Hfo_sOHCa+2       3.374e-14       0.000   3.374e-14     -13.472

Hfo_w         
	  2.436e-07  moles
	                                   Mole                     Log
	Species               Moles    Fraction    Molality    Molality

	Hfo_wOH           1.870e-07       0.768   1.870e-07      -6.728
	Hfo_wOH2+         2.877e-08       0.118   2.877e-08      -7.541
	Hfo_wO-           2.784e-08       0.114   2.784e-08      -7.555
	Hfo_wOCa+         2.524e-15       0.000   2.524e-15     -14.598

Sua           
	 -3.918e-24  Surface + diffuse layer charge, eq
	  0.000e+00  Surface charge, eq
	  0.000e+00  sigma, C/m²
	 -1.573e-18  psi, V
	  6.122e-17  -F*psi/RT
	  1.000e+00  exp(-F*psi/RT)
	  1.000e+04  specific area, m²/g
	  2.250e+00  m² for   2.250e-04 g

	Water in diffuse layer: 2.250e-09 kg, 99.4% of total DDL-water.

	Total moles in diffuse layer (excluding water), Donnan calculation.
	Donnan Layer potential, psi_DL = -6.278e-08 V.
	Boltzmann factor, exp(-psi_DL * F / RT) = 1.000e+00 (= c_DL / c_free if z is +1).

	Element       	     Moles
	Ca            	  5.7152e-16
	Cl            	  5.6364e-13
	H             	  1.1036e-15
	Na            	  5.6150e-13
	O             	  5.2687e-17

Sua           
	  2.250e-07  moles
	                                   Mole                     Log
	Species               Moles    Fraction    Molality    Molality

	Sua               2.250e-07       1.000   2.250e-07      -6.648

Sub           
	 -2.611e-30  Surface + diffuse layer charge, eq
	  0.000e+00  Surface charge, eq
	  0.000e+00  sigma, C/m²
	 -1.572e-18  psi, V
	  6.119e-17  -F*psi/RT
	  1.000e+00  exp(-F*psi/RT)
	  1.000e+04  specific area, m²/g
	  1.499e-06  m² for   1.499e-10 g

	Water in diffuse layer: 1.499e-15 kg,  0.0% of total DDL-water.

	Total moles in diffuse layer (excluding water), Donnan calculation.
	Donnan Layer potential, psi_DL = -6.278e-08 V.
	Boltzmann factor, exp(-psi_DL * F / RT) = 1.000e+00 (= c_DL / c_free if z is +1).

	Element       	     Moles
	Ca            	  3.8081e-22
	Cl            	  3.7556e-19
	H             	  7.3536e-22
	Na            	  3.7414e-19
	O             	  3.5106e-23

Sub           
	  1.499e-13  moles
	                                   Mole                     Log
	Species               Moles    Fraction    Molality    Molality

	Sub               1.499e-13       1.000   1.499e-13     -12.824

----------------------------------User print-----------------------------------

Adapting surface in            7 

------------------------------Surface composition------------------------------

Diffuse Double Layer Surface-Complexation Model

Hfo           
	  7.986e-18  Surface + diffuse layer charge, eq
	  7.986e-18  Surface charge, eq
	  9.736e-05  sigma, C/m²
	  6.569e-02  psi, V
	 -2.557e+00  -F*psi/RT
	  7.754e-02  exp(-F*psi/RT)
	  6.000e+02  specific area, m²/g
	  7.916e-09  m² for   1.319e-11 g

	Water in diffuse layer: 7.916e-18 kg, 34.5% of total DDL-water.

	Total moles in diffuse layer (excluding water), Donnan calculation.
	Donnan Layer potential, psi_DL =  3.906e-01 V.
	Boltzmann factor, exp(-psi_DL * F / RT) = 2.492e-07 (= c_DL / c_free if z is +1).

	Element       	     Moles
	Ca            	  5.6756e-40
	Cl            	  4.7730e-18
	H             	  3.2127e-18
	Na            	  2.9524e-31
	O             	  3.2127e-18

Hfo_s         
	  3.755e-15  moles
	                                   Mole                     Log
	Species               Moles    Fraction    Molality    Molality

	Hfo_sOH           2.888e-15       0.769   2.888e-15     -14.539
	Hfo_sOH2+         4.372e-16       0.116   4.372e-16     -15.359
	Hfo_sO-           4.370e-16       0.116   4.370e-16     -15.359
	Hfo_sOHCa+2       2.445e-22       0.000   2.445e-22     -21.612

Hfo_w         
	  1.462e-13  moles
	                                   Mole                     Log
	Species               Moles    Fraction    Molality    Molality

	Hfo_wOH           1.122e-13       0.768   1.122e-13     -12.950
	Hfo_wOH2+         1.699e-14       0.116   1.699e-14     -13.770
	Hfo_wO-           1.698e-14       0.116   1.698e-14     -13.770
	Hfo_wOCa+         1.851e-23       0.000   1.851e-23     -22.732

Sua           
	 -1.838e-26  Surface + diffuse layer charge, eq
	  0.000e+00  Surface charge, eq
	  0.000e+00  sigma, C/m²
	 -7.956e-24  psi, V
	  3.097e-22  -F*psi/RT
	  1.000e+00  exp(-F*psi/RT)
	  1.000e+04  specific area, m²/g
	  1.500e-08  m² for   1.500e-12 g

	Water in diffuse layer: 1.500e-17 kg, 65.5% of total DDL-water.

	Total moles in diffuse layer (excluding water), Donnan calculation.
	Donnan Layer potential, psi_DL = -6.274e-05 V.
	Boltzmann factor, exp(-psi_DL * F / RT) = 1.002e+00 (= c_DL / c_free if z is +1).

	Element       	     Moles
	Ca            	  2.2734e-27
	Cl            	  2.2477e-24
	H             	  3.0465e-24
	Na            	  2.2500e-24
	O             	  1.5266e-24

Sua           
	  1.500e-15  moles
	                                   Mole                     Log
	Species               Moles    Fraction    Molality    Molality

	Sua               1.500e-15       1.000   1.500e-15     -14.824

----------------------------------User print-----------------------------------

Adapting surface in            0 

------------------------------Surface composition------------------------------

Diffuse Double Layer Surface-Complexation Model

Hfo           
	 -1.477e-13  Surface + diffuse layer charge, eq
	  3.336e-06  Surface charge, eq
	  6.097e-03  sigma, C/m²
	  6.530e-02  psi, V
	 -2.542e+00  -F*psi/RT
	  7.874e-02  exp(-F*psi/RT)
	  6.000e+02  specific area, m²/g
	  5.280e+01  m² for   8.800e-02 g

	Water in diffuse layer: 5.280e-08 kg,  0.3% of total DDL-water.

	Total moles in diffuse layer (excluding water), Donnan calculation.
	Donnan Layer potential, psi_DL =  2.840e-01 V.
	Boltzmann factor, exp(-psi_DL * F / RT) = 1.583e-05 (= c_DL / c_free if z is +1).

	Element       	     Moles
	Ca            	  1.4667e-23
	Cl            	  3.3356e-06
	H             	  3.4993e-10
	Na            	  8.3578e-16
	O             	  3.4993e-10

Hfo_s         
	  2.500e-05  moles
	                                   Mole                     Log
	Species               Moles    Fraction    Molality    Molality

	Hfo_sOH           1.918e-05       0.767   1.918e-05      -4.717
	Hfo_sOH2+         2.945e-06       0.118   2.945e-06      -5.531
	Hfo_sO-           2.862e-06       0.114   2.862e-06      -5.543
	Hfo_sOHCa+2       1.110e-08       0.000   1.110e-08      -7.955

Hfo_w         
	  9.750e-04  moles
	                                   Mole                     Log
	Species               Moles    Fraction    Molality    Molality

	Hfo_wOH           7.484e-04       0.768   7.484e-04      -3.126
	Hfo_wOH2+         1.149e-04       0.118   1.149e-04      -3.940
	Hfo_wO-           1.117e-04       0.115   1.117e-04      -3.952
	Hfo_wOCa+         8.324e-10       0.000   8.324e-10      -9.080

Sua           
	 -1.172e-18  Surface + diffuse layer charge, eq
	  0.000e+00  Surface charge, eq
	  0.000e+00  sigma, C/m²
	  2.278e-16  psi, V
	 -8.865e-15  -F*psi/RT
	  1.000e+00  exp(-F*psi/RT)
	  1.000e+04  specific area, m²/g
	  1.000e+04  m² for   1.000e+00 g

	Water in diffuse layer: 1.000e-05 kg, 49.9% of total DDL-water.

	Total moles in diffuse layer (excluding water), Donnan calculation.
	Donnan Layer potential, psi_DL =  2.562e-05 V.
	Boltzmann factor, exp(-psi_DL * F / RT) = 9.990e-01 (= c_DL / c_free if z is +1).

	Element       	     Moles
	Ca            	  9.9801e-12
	Cl            	  1.0010e-08
	H             	  2.1020e-12
	Na            	  9.9900e-09
	O             	  1.0593e-12

Sua           
	  1.000e-03  moles
	                                   Mole                     Log
	Species               Moles    Fraction    Molality    Molality

	Sua               1.000e-03       1.000   1.000e-03      -3.000

Sub           
	 -1.172e-18  Surface + diffuse layer charge, eq
	  0.000e+00  Surface charge, eq
	  0.000e+00  sigma, C/m²
	  2.278e-16  psi, V
	 -8.865e-15  -F*psi/RT
	  1.000e+00  exp(-F*psi/RT)
	  1.000e+04  specific area, m²/g
	  1.000e+04  m² for   1.000e+00 g

	Water in diffuse layer: 1.000e-05 kg, 49.9% of total DDL-water.

	Total moles in diffuse layer (excluding water), Donnan calculation.
	Donnan Layer potential, psi_DL =  2.562e-05 V.
	Boltzmann factor, exp(-psi_DL * F / RT) = 9.990e-01 (= c_DL / c_free if z is +1).

	Element       	     Moles
	Ca            	  9.9801e-12
	Cl            	  1.0010e-08
	H             	  2.1020e-12
	Na            	  9.9900e-09
	O             	  1.0593e-12

Sub           
	  1.000e-03  moles
	                                   Mole                     Log
	Species               Moles    Fraction    Molality    Molality

	Sub               1.000e-03       1.000   1.000e-03      -3.000

----------------------------------User print-----------------------------------

Adapting surface in            1 

------------------------------Surface composition------------------------------

Diffuse Double Layer Surface-Complexation Model

Hfo           
	 -1.528e-13  Surface + diffuse layer charge, eq
	  3.272e-06  Surface charge, eq
	  5.983e-03  sigma, C/m²
	  6.742e-02  psi, V
	 -2.624e+00  -F*psi/RT
	  7.250e-02  exp(-F*psi/RT)
	  6.000e+02  specific area, m²/g
	  5.277e+01  m² for   8.796e-02 g

	Water in diffuse layer: 5.277e-08 kg,  0.3% of total DDL-water.

	Total moles in diffuse layer (excluding water), Donnan calculation.
	Donnan Layer potential, psi_DL =  2.869e-01 V.
	Boltzmann factor, exp(-psi_DL * F / RT) = 1.411e-05 (= c_DL / c_free if z is +1).

	Element       	     Moles
	Ca            	  1.0247e-23
	Cl            	  3.2718e-06
	H             	  3.6057e-10
	Na            	  6.5158e-16
	O             	  3.6057e-10

Hfo_s         
	  2.499e-05  moles
	                                   Mole                     Log
	Species               Moles    Fraction    Molality    Molality

	Hfo_sOH           1.917e-05       0.767   1.917e-05      -4.717
	Hfo_sOH2+         2.943e-06       0.118   2.943e-06      -5.531
	Hfo_sO-           2.862e-06       0.115   2.862e-06      -5.543
	Hfo_sOHCa+2       8.250e-09       0.000   8.250e-09      -8.084

Hfo_w         
	  9.745e-04  moles
	                                   Mole                     Log
	Species               Moles    Fraction    Molality    Molality

	Hfo_wOH           7.480e-04       0.768   7.480e-04      -3.126
	Hfo_wOH2+         1.148e-04       0.118   1.148e-04      -3.940
	Hfo_wO-           1.116e-04       0.115   1.116e-04      -3.952
	Hfo_wOCa+         6.188e-10       0.000   6.188e-10      -9.208

Sorbedhfo     
	 -7.640e-14  Surface + diffuse layer charge, eq
	  1.636e-06  Surface charge, eq
	  5.983e-03  sigma, C/m²
	  6.742e-02  psi, V
	 -2.624e+00  -F*psi/RT
	  7.250e-02  exp(-F*psi/RT)
	  6.000e+02  specific area, m²/g
	  2.639e+01  m² for   4.398e-02 g

	Water in diffuse layer: 2.639e-08 kg,  0.1% of total DDL-water.

	Total moles in diffuse layer (excluding water), Donnan calculation.
	Donnan Layer potential, psi_DL =  2.869e-01 V.
	Boltzmann factor, exp(-psi_DL * F / RT) = 1.411e-05 (= c_DL / c_free if z is +1).

	Element       	     Moles
	Ca            	  5.1235e-24
	Cl            	  1.6359e-06
	H             	  1.8028e-10
	Na            	  3.2579e-16
	O             	  1.8028e-10

Sorbedhfo_s   
	  1.249e-05  moles
	                                   Mole                     Log
	Species               Moles    Fraction    Molality    Molality

	Sorbedhfo_sOH     9.587e-06       0.767   9.587e-06      -5.018
	Sorbedhfo_sOH2+   1.472e-06       0.118   1.472e-06      -5.832
	Sorbedhfo_sO-     1.431e-06       0.115   1.431e-06      -5.844
	Sorbedhfo_sOHCa+2   4.125e-09       0.000   4.125e-09      -8.385

Sorbedhfo_w   
	  4.873e-04  moles
	                                   Mole                     Log
	Species               Moles    Fraction    Molality    Molality

	Sorbedhfo_wOH     3.740e-04       0.768   3.740e-04      -3.427
	Sorbedhfo_wOH2+   5.741e-05       0.118   5.741e-05      -4.241
	Sorbedhfo_wO-     5.582e-05       0.115   5.582e-05      -4.253
	Sorbedhfo_wOCa+   3.094e-10       0.000   3.094e-10      -9.509

Sua           
	  4.129e-17  Surface + diffuse layer charge, eq
	  0.000e+00  Surface charge, eq
	  0.000e+00  sigma, C/m²
	 -6.732e-15  psi, V
	  2.620e-13  -F*psi/RT
	  1.000e+00  exp(-F*psi/RT)
	  1.000e+04  specific area, m²/g
	  8.748e+03  m² for   8.748e-01 g

	Water in diffuse layer: 8.748e-06 kg, 46.5% of total DDL-water.

	Total moles in diffuse layer (excluding water), Donnan calculation.
	Donnan Layer potential, psi_DL =  2.928e-05 V.
	Boltzmann factor, exp(-psi_DL * F / RT) = 9.989e-01 (= c_DL / c_free if z is +1).

	Element       	     Moles
	Ca            	  7.6551e-12
	Cl            	  7.6618e-09
	H             	  1.8397e-12
	Na            	  7.6464e-09
	O             	  8.5225e-13

Sua           
	  8.748e-04  moles
	                                   Mole                     Log
	Species               Moles    Fraction    Molality    Molality

	Sua               8.748e-04       1.000   8.748e-04      -3.058

Sub           
	  4.717e-17  Surface + diffuse layer charge, eq
	  0.000e+00  Surface charge, eq
	  0.000e+00  sigma, C/m²
	 -6.732e-15  psi, V
	  2.620e-13  -F*psi/RT
	  1.000e+00  exp(-F*psi/RT)
	  1.000e+04  specific area, m²/g
	  9.995e+03  m² for   9.995e-01 g

	Water in diffuse layer: 9.995e-06 kg, 53.1% of total DDL-water.

	Total moles in diffuse layer (excluding water), Donnan calculation.
	Donnan Layer potential, psi_DL =  2.928e-05 V.
	Boltzmann factor, exp(-psi_DL * F / RT) = 9.989e-01 (= c_DL / c_free if z is +1).

	Element       	     Moles
	Ca            	  8.7459e-12
	Cl            	  8.7536e-09
	H             	  2.1019e-12
	Na            	  8.7359e-09
	O             	  9.7368e-13

Sub           
	  9.995e-04  moles
	                                   Mole                     Log
	Species               Moles    Fraction    Molality    Molality

	Sub               9.995e-04       1.000   9.995e-04      -3.000

----------------------------------User print-----------------------------------

Adapting surface in            2 

------------------------------Surface composition------------------------------

Diffuse Double Layer Surface-Complexation Model

Hfo           
	 -4.261e-13  Surface + diffuse layer charge, eq
	  4.333e-06  Surface charge, eq
	  7.927e-03  sigma, C/m²
	  9.377e-02  psi, V
	 -3.650e+00  -F*psi/RT
	  2.599e-02  exp(-F*psi/RT)
	  6.000e+02  specific area, m²/g
	  5.275e+01  m² for   8.791e-02 g

	Water in diffuse layer: 5.275e-08 kg,  0.2% of total DDL-water.

	Total moles in diffuse layer (excluding water), Donnan calculation.
	Donnan Layer potential, psi_DL =  3.086e-01 V.
	Boltzmann factor, exp(-psi_DL * F / RT) = 6.072e-06 (= c_DL / c_free if z is +1).

	Element       	     Moles
	Ca            	  1.0867e-24
	Cl            	  4.3332e-06
	H             	  2.9645e-10
	Na            	  1.5998e-16
	O             	  2.9645e-10

Hfo_s         
	  2.498e-05  moles
	                                   Mole                     Log
	Species               Moles    Fraction    Molality    Molality

	Hfo_sOH           1.917e-05       0.768   1.917e-05      -4.717
	Hfo_sOH2+         2.956e-06       0.118   2.956e-06      -5.529
	Hfo_sO-           2.848e-06       0.114   2.848e-06      -5.545
	Hfo_sOHCa+2       6.183e-10       0.000   6.183e-10      -9.209

Hfo_w         
	  9.740e-04  moles
	                                   Mole                     Log
	Species               Moles    Fraction    Molality    Molality

	Hfo_wOH           7.477e-04       0.768   7.477e-04      -3.126
	Hfo_wOH2+         1.153e-04       0.118   1.153e-04      -3.938
	Hfo_wO-           1.111e-04       0.114   1.111e-04      -3.954
	Hfo_wOCa+         4.615e-11       0.000   4.615e-11     -10.336

Sorbedhfo     
	 -1.065e-13  Surface + diffuse layer charge, eq
	  1.083e-06  Surface charge, eq
	  7.927e-03  sigma, C/m²
	  9.377e-02  psi, V
	 -3.650e+00  -F*psi/RT
	  2.599e-02  exp(-F*psi/RT)
	  6.000e+02  specific area, m²/g
	  1.319e+01  m² for   2.198e-02 g

	Water in diffuse layer: 1.319e-08 kg,  0.0% of total DDL-water.

	Total moles in diffuse layer (excluding water), Donnan calculation.
	Donnan Layer potential, psi_DL =  3.086e-01 V.
	Boltzmann factor, exp(-psi_DL * F / RT) = 6.072e-06 (= c_DL / c_free if z is +1).

	Element       	     Moles
	Ca            	  2.7167e-25
	Cl            	  1.0833e-06
	H             	  7.4112e-11
	Na            	  3.9995e-17
	O             	  7.4112e-11

Sorbedhfo_s   
	  6.244e-06  moles
[...]
	  0.000e+00  sigma, C/m²
	 -5.506e-15  psi, V
	  2.143e-13  -F*psi/RT
	  1.000e+00  exp(-F*psi/RT)
	  1.000e+04  specific area, m²/g
	  6.248e+03  m² for   6.248e-01 g

	Water in diffuse layer: 6.248e-06 kg, 13.9% of total DDL-water.

	Total moles in diffuse layer (excluding water), Donnan calculation.
	Donnan Layer potential, psi_DL =  3.717e-05 V.
	Boltzmann factor, exp(-psi_DL * F / RT) = 9.986e-01 (= c_DL / c_free if z is +1).

	Element       	     Moles
	Ca            	  3.9367e-12
	Cl            	  4.3094e-09
	H             	  1.8267e-12
	Na            	  4.3028e-09
	O             	  1.5497e-12

Sua           
	  6.248e-04  moles
	                                   Mole                     Log
	Species               Moles    Fraction    Molality    Molality

	Sua               6.248e-04       1.000   6.248e-04      -3.204

Sub           
	  1.330e-16  Surface + diffuse layer charge, eq
	  0.000e+00  Surface charge, eq
	  0.000e+00  sigma, C/m²
	 -5.506e-15  psi, V
	  2.143e-13  -F*psi/RT
	  1.000e+00  exp(-F*psi/RT)
	  1.000e+04  specific area, m²/g
	  3.871e+04  m² for   3.871e+00 g

	Water in diffuse layer: 3.871e-05 kg, 85.9% of total DDL-water.

	Total moles in diffuse layer (excluding water), Donnan calculation.
	Donnan Layer potential, psi_DL =  3.717e-05 V.
	Boltzmann factor, exp(-psi_DL * F / RT) = 9.986e-01 (= c_DL / c_free if z is +1).

	Element       	     Moles
	Ca            	  2.4391e-11
	Cl            	  2.6700e-08
	H             	  1.1318e-11
	Na            	  2.6660e-08
	O             	  9.6020e-12

Sub           
	  3.871e-03  moles
	                                   Mole                     Log
	Species               Moles    Fraction    Molality    Molality

	Sub               3.871e-03       1.000   3.871e-03      -2.412

----------------------------------User print-----------------------------------

Adapting surface in            3 

------------------------------Surface composition------------------------------

Diffuse Double Layer Surface-Complexation Model

Hfo           
	  2.055e-12  Surface + diffuse layer charge, eq
	  2.498e-06  Surface charge, eq
	  9.145e-03  sigma, C/m²
	  1.125e-01  psi, V
	 -4.378e+00  -F*psi/RT
	  1.255e-02  exp(-F*psi/RT)
	  6.000e+02  specific area, m²/g
	  2.636e+01  m² for   4.393e-02 g

	Water in diffuse layer: 2.636e-08 kg, 73.3% of total DDL-water.

	Total moles in diffuse layer (excluding water), Donnan calculation.
	Donnan Layer potential, psi_DL =  3.244e-01 V.
	Boltzmann factor, exp(-psi_DL * F / RT) = 3.287e-06 (= c_DL / c_free if z is +1).

	Element       	     Moles
	Ca            	  9.8627e-26
	Cl            	  2.4981e-06
	H             	  1.3109e-10
	Na            	  2.7059e-17
	O             	  1.3109e-10

Hfo_s         
	  1.248e-05  moles
	                                   Mole                     Log
	Species               Moles    Fraction    Molality    Molality

	Hfo_sOH           9.580e-06       0.768   9.580e-06      -5.019
	Hfo_sOH2+         1.482e-06       0.119   1.482e-06      -5.829
	Hfo_sO-           1.419e-06       0.114   1.419e-06      -5.848
	Hfo_sOHCa+2       4.509e-11       0.000   4.509e-11     -10.346

Hfo_w         
	  4.868e-04  moles
	                                   Mole                     Log
	Species               Moles    Fraction    Molality    Molality

	Hfo_wOH           3.736e-04       0.768   3.736e-04      -3.428
	Hfo_wOH2+         5.778e-05       0.119   5.778e-05      -4.238
	Hfo_wO-           5.535e-05       0.114   5.535e-05      -4.257
	Hfo_wOCa+         3.356e-12       0.000   3.356e-12     -11.474

Sorbedhfo     
	  5.138e-13  Surface + diffuse layer charge, eq
	  6.246e-07  Surface charge, eq
	  9.145e-03  sigma, C/m²
	  1.125e-01  psi, V
	 -4.378e+00  -F*psi/RT
	  1.255e-02  exp(-F*psi/RT)
	  6.000e+02  specific area, m²/g
	  6.590e+00  m² for   1.098e-02 g

	Water in diffuse layer: 6.590e-09 kg, 18.3% of total DDL-water.

	Total moles in diffuse layer (excluding water), Donnan calculation.
	Donnan Layer potential, psi_DL =  3.244e-01 V.
	Boltzmann factor, exp(-psi_DL * F / RT) = 3.287e-06 (= c_DL / c_free if z is +1).

	Element       	     Moles
	Ca            	  2.4656e-26
	Cl            	  6.2452e-07
	H             	  3.2772e-11
	Na            	  6.7647e-18
	O             	  3.2772e-11

Sorbedhfo_s   
	  3.120e-06  moles
	                                   Mole                     Log
	Species               Moles    Fraction    Molality    Molality

	Sorbedhfo_sOH     2.395e-06       0.768   2.395e-06      -5.621
	Sorbedhfo_sOH2+   3.704e-07       0.119   3.704e-07      -6.431
	Sorbedhfo_sO-     3.548e-07       0.114   3.548e-07      -6.450
	Sorbedhfo_sOHCa+2   1.127e-11       0.000   1.127e-11     -10.948

Sorbedhfo_w   
	  1.217e-04  moles
	                                   Mole                     Log
	Species               Moles    Fraction    Molality    Molality

	Sorbedhfo_wOH     9.341e-05       0.768   9.341e-05      -4.030
	Sorbedhfo_wOH2+   1.445e-05       0.119   1.445e-05      -4.840
	Sorbedhfo_wO-     1.384e-05       0.114   1.384e-05      -4.859
	Sorbedhfo_wOCa+   8.390e-13       0.000   8.390e-13     -12.076

Sua           
	  8.426e-19  Surface + diffuse layer charge, eq
	  0.000e+00  Surface charge, eq
	  0.000e+00  sigma, C/m²
	 -1.074e-12  psi, V
	  4.182e-11  -F*psi/RT
	  1.000e+00  exp(-F*psi/RT)
	  1.000e+04  specific area, m²/g
	  1.875e+00  m² for   1.875e-04 g

	Water in diffuse layer: 1.875e-09 kg,  5.2% of total DDL-water.

	Total moles in diffuse layer (excluding water), Donnan calculation.
	Donnan Layer potential, psi_DL =  8.204e-05 V.
	Boltzmann factor, exp(-psi_DL * F / RT) = 9.968e-01 (= c_DL / c_free if z is +1).

	Element       	     Moles
	Ca            	  5.9629e-16
	Cl            	  5.8587e-13
	H             	  1.2384e-15
	Na            	  5.8350e-13
	O             	  3.2421e-17

Sua           
	  1.875e-07  moles
	                                   Mole                     Log
	Species               Moles    Fraction    Molality    Molality

	Sua               1.875e-07       1.000   1.875e-07      -6.727

Sub           
	  5.055e-19  Surface + diffuse layer charge, eq
	  0.000e+00  Surface charge, eq
	  0.000e+00  sigma, C/m²
	 -1.074e-12  psi, V
	  4.182e-11  -F*psi/RT
	  1.000e+00  exp(-F*psi/RT)
	  1.000e+04  specific area, m²/g
	  1.125e+00  m² for   1.125e-04 g

	Water in diffuse layer: 1.125e-09 kg,  3.1% of total DDL-water.

	Total moles in diffuse layer (excluding water), Donnan calculation.
	Donnan Layer potential, psi_DL =  8.204e-05 V.
	Boltzmann factor, exp(-psi_DL * F / RT) = 9.968e-01 (= c_DL / c_free if z is +1).

	Element       	     Moles
	Ca            	  3.5775e-16
	Cl            	  3.5150e-13
	H             	  7.4300e-16
	Na            	  3.5008e-13
	O             	  1.9452e-17

Sub           
	  1.125e-07  moles
	                                   Mole                     Log
	Species               Moles    Fraction    Molality    Molality

	Sub               1.125e-07       1.000   1.125e-07      -6.949

----------------------------------User print-----------------------------------

Adapting surface in            4 

------------------------------Surface composition------------------------------

Diffuse Double Layer Surface-Complexation Model

Hfo           
	 -6.811e-16  Surface + diffuse layer charge, eq
	  7.982e-09  Surface charge, eq
	  1.169e-04  sigma, C/m²
	  8.113e-02  psi, V
	 -3.158e+00  -F*psi/RT
	  4.252e-02  exp(-F*psi/RT)
	  6.000e+02  specific area, m²/g
	  6.590e+00  m² for   1.098e-02 g

	Water in diffuse layer: 6.590e-09 kg, 100.0% of total DDL-water.

	Total moles in diffuse layer (excluding water), Donnan calculation.
	Donnan Layer potential, psi_DL =  4.033e-01 V.
	Boltzmann factor, exp(-psi_DL * F / RT) = 1.523e-07 (= c_DL / c_free if z is +1).

	Element       	     Moles
	Ca            	  2.7997e-31
	Cl            	  5.5829e-09
	H             	  2.3995e-09
	Na            	  5.0976e-33
	O             	  2.3995e-09

Hfo_s         
	  3.120e-06  moles
	                                   Mole                     Log
	Species               Moles    Fraction    Molality    Molality

	Hfo_sOH           2.395e-06       0.768   2.395e-06      -5.621
	Hfo_sOH2+         3.626e-07       0.116   3.626e-07      -6.441
	Hfo_sO-           3.624e-07       0.116   3.624e-07      -6.441
	Hfo_sOHCa+2       1.063e-13       0.000   1.063e-13     -12.973

Hfo_w         
	  1.217e-04  moles
	                                   Mole                     Log
	Species               Moles    Fraction    Molality    Molality

	Hfo_wOH           9.341e-05       0.768   9.341e-05      -4.030
	Hfo_wOH2+         1.414e-05       0.116   1.414e-05      -4.849
	Hfo_wO-           1.413e-05       0.116   1.413e-05      -4.850
	Hfo_wOCa+         8.083e-15       0.000   8.083e-15     -14.092

Sua           
	  1.481e-33  Surface + diffuse layer charge, eq
	  0.000e+00  Surface charge, eq
	  0.000e+00  sigma, C/m²
	 -1.838e-17  psi, V
	  7.156e-16  -F*psi/RT
	  1.000e+00  exp(-F*psi/RT)
	  1.000e+04  specific area, m²/g
	  1.125e-08  m² for   1.125e-12 g

	Water in diffuse layer: 1.125e-17 kg,  0.0% of total DDL-water.

	Total moles in diffuse layer (excluding water), Donnan calculation.
	Donnan Layer potential, psi_DL = -8.553e-05 V.
	Boltzmann factor, exp(-psi_DL * F / RT) = 1.003e+00 (= c_DL / c_free if z is +1).

	Element       	     Moles
	Ca            	  2.9794e-27
	Cl            	  1.4462e-24
	H             	  2.7040e-24
	Na            	  5.7319e-35
	O             	  6.3185e-25

Sua           
	  1.125e-15  moles
	                                   Mole                     Log
	Species               Moles    Fraction    Molality    Molality

	Sua               1.125e-15       1.000   1.125e-15     -14.949

----------------------------------User print-----------------------------------

Adapting surface in            5 

------------------------------Surface composition------------------------------

Diffuse Double Layer Surface-Complexation Model

Hfo           
	  2.238e-14  Surface + diffuse layer charge, eq
	  5.288e-09  Surface charge, eq
	  4.836e-03  sigma, C/m²
	  5.681e-02  psi, V
	 -2.211e+00  -F*psi/RT
	  1.096e-01  exp(-F*psi/RT)
	  6.000e+02  specific area, m²/g
	  1.055e-01  m² for   1.759e-04 g

	Water in diffuse layer: 1.055e-10 kg,  0.0% of total DDL-water.

	Total moles in diffuse layer (excluding water), Donnan calculation.
	Donnan Layer potential, psi_DL =  2.797e-01 V.
	Boltzmann factor, exp(-psi_DL * F / RT) = 1.872e-05 (= c_DL / c_free if z is +1).

	Element       	     Moles
	Ca            	  3.8943e-26
	Cl            	  5.2876e-09
	H             	  8.2430e-13
	Na            	  1.8503e-18
	O             	  8.2430e-13

Hfo_s         
	  4.996e-08  moles
	                                   Mole                     Log
	Species               Moles    Fraction    Molality    Molality

	Hfo_sOH           3.832e-08       0.767   3.832e-08      -7.417
	Hfo_sOH2+         5.865e-09       0.117   5.865e-09      -8.232
	Hfo_sO-           5.735e-09       0.115   5.735e-09      -8.241
	Hfo_sOHCa+2       4.007e-11       0.001   4.007e-11     -10.397

Hfo_w         
	  1.948e-06  moles
	                                   Mole                     Log
	Species               Moles    Fraction    Molality    Molality

	Hfo_wOH           1.496e-06       0.768   1.496e-06      -5.825
	Hfo_wOH2+         2.289e-07       0.117   2.289e-07      -6.640
	Hfo_wO-           2.239e-07       0.115   2.239e-07      -6.650
	Hfo_wOCa+         3.015e-12       0.000   3.015e-12     -11.521

Sua           
	  9.895e-20  Surface + diffuse layer charge, eq
	  0.000e+00  Surface charge, eq
	  0.000e+00  sigma, C/m²
	 -1.930e-17  psi, V
	  7.513e-16  -F*psi/RT
	  1.000e+00  exp(-F*psi/RT)
	  1.000e+04  specific area, m²/g
	  9.374e+03  m² for   9.374e-01 g

	Water in diffuse layer: 9.374e-06 kg, 99.8% of total DDL-water.

	Total moles in diffuse layer (excluding water), Donnan calculation.
	Donnan Layer potential, psi_DL = -1.676e-08 V.
	Boltzmann factor, exp(-psi_DL * F / RT) = 1.000e+00 (= c_DL / c_free if z is +1).

	Element       	     Moles
	Ca            	  8.7477e-12
	Cl            	  8.7957e-09
	H             	  2.0824e-12
	Na            	  8.7788e-09
	O             	  1.3797e-12

Sua           
	  9.374e-04  moles
	                                   Mole                     Log
	Species               Moles    Fraction    Molality    Molality

	Sua               9.374e-04       1.000   9.374e-04      -3.028

Sub           
	  1.486e-22  Surface + diffuse layer charge, eq
	  0.000e+00  Surface charge, eq
	  0.000e+00  sigma, C/m²
	 -1.842e-17  psi, V
	  7.169e-16  -F*psi/RT
	  1.000e+00  exp(-F*psi/RT)
	  1.000e+04  specific area, m²/g
	  1.499e+01  m² for   1.499e-03 g

	Water in diffuse layer: 1.499e-08 kg,  0.2% of total DDL-water.

	Total moles in diffuse layer (excluding water), Donnan calculation.
	Donnan Layer potential, psi_DL = -1.676e-08 V.
	Boltzmann factor, exp(-psi_DL * F / RT) = 1.000e+00 (= c_DL / c_free if z is +1).

	Element       	     Moles
	Ca            	  1.3988e-14
	Cl            	  1.4065e-11
	H             	  3.3298e-15
	Na            	  1.4038e-11
	O             	  2.2063e-15

Sub           
	  1.499e-06  moles
	                                   Mole                     Log
	Species               Moles    Fraction    Molality    Molality

	Sub               1.499e-06       1.000   1.499e-06      -5.824

----------------------------------User print-----------------------------------

Adapting surface in            6 

------------------------------Surface composition------------------------------

Diffuse Double Layer Surface-Complexation Model

Hfo           
	  3.773e-13  Surface + diffuse layer charge, eq
	  1.861e-08  Surface charge, eq
	  2.723e-02  sigma, C/m²
	  1.477e-01  psi, V
	 -5.750e+00  -F*psi/RT
	  3.182e-03  exp(-F*psi/RT)
	  6.000e+02  specific area, m²/g
	  6.594e-02  m² for   1.099e-04 g

	Water in diffuse layer: 6.594e-11 kg,  0.0% of total DDL-water.

	Total moles in diffuse layer (excluding water), Donnan calculation.
	Donnan Layer potential, psi_DL =  3.320e-01 V.
	Boltzmann factor, exp(-psi_DL * F / RT) = 2.443e-06 (= c_DL / c_free if z is +1).

	Element       	     Moles
	Ca            	  2.7742e-28
	Cl            	  1.8608e-08
	H             	  1.0822e-13
	Na            	  1.1039e-19
	O             	  1.0822e-13

Hfo_s         
	  3.122e-08  moles
	                                   Mole                     Log
	Species               Moles    Fraction    Molality    Molality

	Hfo_sOH           2.395e-08       0.767   2.395e-08      -7.621
	Hfo_sOH2+         3.866e-09       0.124   3.866e-09      -8.413
	Hfo_sO-           3.400e-09       0.109   3.400e-09      -8.468
	Hfo_sOHCa+2       1.554e-14       0.000   1.554e-14     -13.809

Hfo_w         
	  1.218e-06  moles
	                                   Mole                     Log
	Species               Moles    Fraction    Molality    Molality

	Hfo_wOH           9.342e-07       0.767   9.342e-07      -6.030
	Hfo_wOH2+         1.508e-07       0.124   1.508e-07      -6.822
	Hfo_wO-           1.326e-07       0.109   1.326e-07      -6.877
	Hfo_wOCa+         1.108e-15       0.000   1.108e-15     -14.955

Sua           
	  2.220e-18  Surface + diffuse layer charge, eq
	  0.000e+00  Surface charge, eq
	  0.000e+00  sigma, C/m²
	 -5.983e-16  psi, V
	  2.329e-14  -F*psi/RT
	  1.000e+00  exp(-F*psi/RT)
	  1.000e+04  specific area, m²/g
	  6.248e+03  m² for   6.248e-01 g

	Water in diffuse layer: 6.248e-06 kg, 99.5% of total DDL-water.

	Total moles in diffuse layer (excluding water), Donnan calculation.
	Donnan Layer potential, psi_DL = -2.281e-08 V.
	Boltzmann factor, exp(-psi_DL * F / RT) = 1.000e+00 (= c_DL / c_free if z is +1).

	Element       	     Moles
	Ca            	  4.2892e-12
	Cl            	  4.3070e-09
	H             	  1.6759e-11
	Na            	  4.2817e-09
	O             	  3.0711e-14

Sua           
	  6.248e-04  moles
	                                   Mole                     Log
	Species               Moles    Fraction    Molality    Molality

	Sua               6.248e-04       1.000   6.248e-04      -3.204

Sub           
	  1.124e-20  Surface + diffuse layer charge, eq
	  0.000e+00  Surface charge, eq
	  0.000e+00  sigma, C/m²
	 -5.945e-16  psi, V
	  2.314e-14  -F*psi/RT
	  1.000e+00  exp(-F*psi/RT)
	  1.000e+04  specific area, m²/g
	  3.186e+01  m² for   3.186e-03 g

	Water in diffuse layer: 3.186e-08 kg,  0.5% of total DDL-water.

	Total moles in diffuse layer (excluding water), Donnan calculation.
	Donnan Layer potential, psi_DL = -2.281e-08 V.
	Boltzmann factor, exp(-psi_DL * F / RT) = 1.000e+00 (= c_DL / c_free if z is +1).

	Element       	     Moles
	Ca            	  2.1871e-14
	Cl            	  2.1961e-11
	H             	  8.5454e-14
	Na            	  2.1832e-11
	O             	  1.5659e-16

Sub           
	  3.186e-06  moles
	                                   Mole                     Log
	Species               Moles    Fraction    Molality    Molality

	Sub               3.186e-06       1.000   3.186e-06      -5.497

----------------------------------User print-----------------------------------

Adapting surface in            7 

------------------------------Surface composition------------------------------

Diffuse Double Layer Surface-Complexation Model

Hfo           
	  4.047e-17  Surface + diffuse layer charge, eq
	  1.299e-10  Surface charge, eq
	  6.338e-04  sigma, C/m²
	  1.545e-02  psi, V
	 -6.014e-01  -F*psi/RT
	  5.481e-01  exp(-F*psi/RT)
	  6.000e+02  specific area, m²/g
	  1.978e-02  m² for   3.296e-05 g

	Water in diffuse layer: 1.978e-11 kg,  1.0% of total DDL-water.

	Total moles in diffuse layer (excluding water), Donnan calculation.
	Donnan Layer potential, psi_DL =  2.557e-01 V.
	Boltzmann factor, exp(-psi_DL * F / RT) = 4.764e-05 (= c_DL / c_free if z is +1).

	Element       	     Moles
	Ca            	  1.7942e-26
	Cl            	  1.2959e-10
	H             	  3.0274e-13
	Na            	  2.9423e-19
	O             	  3.0274e-13

Hfo_s         
	  9.364e-09  moles
	                                   Mole                     Log
	Species               Moles    Fraction    Molality    Molality

	Hfo_sOH           7.139e-09       0.762   7.139e-09      -8.146
	Hfo_sO-           1.081e-09       0.115   1.081e-09      -8.966
	Hfo_sOH2+         1.080e-09       0.115   1.080e-09      -8.966
	Hfo_sOHCa+2       6.394e-11       0.007   6.394e-11     -10.194

Hfo_w         
	  3.652e-07  moles
	                                   Mole                     Log
	Species               Moles    Fraction    Molality    Molality

	Hfo_wOH           2.803e-07       0.768   2.803e-07      -6.552
	Hfo_wO-           4.243e-08       0.116   4.243e-08      -7.372
	Hfo_wOH2+         4.243e-08       0.116   4.243e-08      -7.372
	Hfo_wOCa+         4.896e-12       0.000   4.896e-12     -11.310

Sua           
	  5.069e-24  Surface + diffuse layer charge, eq
	  0.000e+00  Surface charge, eq
	  0.000e+00  sigma, C/m²
	 -7.064e-18  psi, V
	  2.750e-16  -F*psi/RT
	  1.000e+00  exp(-F*psi/RT)
	  1.000e+04  specific area, m²/g
	  1.875e+00  m² for   1.875e-04 g

	Water in diffuse layer: 1.875e-09 kg, 99.0% of total DDL-water.

	Total moles in diffuse layer (excluding water), Donnan calculation.
	Donnan Layer potential, psi_DL = -5.026e-08 V.
	Boltzmann factor, exp(-psi_DL * F / RT) = 1.000e+00 (= c_DL / c_free if z is +1).

	Element       	     Moles
	Ca            	  5.9894e-16
	Cl            	  5.8526e-13
	H             	  1.3976e-15
	Na            	  5.8540e-13
	O             	  1.3689e-15

Sua           
	  1.875e-07  moles
	                                   Mole                     Log
	Species               Moles    Fraction    Molality    Molality

	Sua               1.875e-07       1.000   1.875e-07      -6.727

-------------------------------
End of Run after 0.055 Seconds.
-------------------------------

