WARNING: Database file from DATABASE keyword is used; command line argument ignored.
   Input file: SC_Ohm
  Output file: SC_Ohm.out
Database file: ../database/phreeqc.dat

------------------
Reading data base.
------------------

	SOLUTION_MASTER_SPECIES
	SOLUTION_SPECIES
	PHASES
	EXCHANGE_MASTER_SPECIES
	EXCHANGE_SPECIES
	SURFACE_MASTER_SPECIES
	SURFACE_SPECIES
	RATES
	END
------------------------------------
Reading input data for simulation 1.
------------------------------------

	DATABASE ../database/phreeqc.dat
	SELECTED_OUTPUT 101
	    file                 SC_Ohm_101.sel
	USER_PUNCH 101
	    headings Mu SC
	    start
	10 PUNCH STR_F$(MU, 20, 12)
	20 PUNCH STR_F$(SC, 20, 10)
	    end
	END
------------------
End of simulation.
------------------

------------------------------------
Reading input data for simulation 2.
------------------------------------

	SOLUTION 0-1
	 water 1e3
	 Cl 0.1
	 Na 0.1
	SOLUTION 2
	   water 1e3
	 Cl 0.1
	 Na 0.1
	potential 1
	END
-------------------------------------------
Beginning of initial solution calculations.
-------------------------------------------

Initial solution 0.	

-----------------------------Solution composition------------------------------

	Elements           Molality       Moles

	Cl                1.000e-04   1.000e-01
	Na                1.000e-04   1.000e-01

----------------------------Description of solution----------------------------

                                       pH  =   7.000    
                                       pe  =   4.000    
      Specific Conductance (µS/cm,  25°C)  = 12
                          Density (g/cm³)  =   0.99705
                               Volume (L)  = 1002.96741
                        Activity of water  =   1.000
                 Ionic strength (mol/kgw)  =   1.001e-04
                       Mass of water (kg)  =   1.000e+03
                 Total alkalinity (eq/kg)  =   1.250e-09
                    Total carbon (mol/kg)  =   0.000e+00
                       Total CO2 (mol/kg)  =   0.000e+00
                         Temperature (°C)  =  25.00
                  Electrical balance (eq)  =  -1.250e-06
 Percent error, 100*(Cat-|An|)/(Cat+|An|)  =  -0.00
                               Iterations  =   2
                                  Total H  = 1.110124e+05
                                  Total O  = 5.550622e+04

----------------------------Distribution of species----------------------------

                                               Log       Log       Log    mole V
   Species          Molality    Activity  Molality  Activity     Gamma   cm³/mol

   OH-             1.024e-07   1.012e-07    -6.990    -6.995    -0.005     -4.13
   H+              1.011e-07   1.000e-07    -6.995    -7.000    -0.005      0.00
   H2O             5.551e+01   1.000e+00     1.744    -0.000     0.000     18.07
Cl            1.000e-04
   Cl-             1.000e-04   9.885e-05    -4.000    -4.005    -0.005     18.05
H(0)          1.416e-25
   H2              7.079e-26   7.079e-26   -25.150   -25.150     0.000     28.61
Na            1.000e-04
   Na+             1.000e-04   9.885e-05    -4.000    -4.005    -0.005     -1.51
   NaOH            1.000e-21   1.001e-21   -21.000   -21.000     0.000     (0)  
O(0)          0.000e+00
   O2              0.000e+00   0.000e+00   -42.080   -42.080     0.000     30.40

------------------------------Saturation indices-------------------------------

  Phase               SI** log IAP   log K(298 K,   1 atm)

  H2(g)           -22.05    -25.15   -3.10  H2
  H2O(g)           -1.50     -0.00    1.50  H2O
  Halite           -9.58     -8.01    1.57  NaCl
  O2(g)           -39.19    -42.08   -2.89  O2

**For a gas, SI = log10(fugacity). Fugacity = pressure * phi / 1 atm.
  For ideal gases, phi = 1.

Initial solution 2.	

-----------------------------Solution composition------------------------------

	Elements           Molality       Moles

	Cl                1.000e-04   1.000e-01
	Na                1.000e-04   1.000e-01

----------------------------Description of solution----------------------------

                                       pH  =   7.000    
                                       pe  =   4.000    
      Specific Conductance (µS/cm,  25°C)  = 12
                          Density (g/cm³)  =   0.99705
                               Volume (L)  = 1002.96741
                        Activity of water  =   1.000
                 Ionic strength (mol/kgw)  =   1.001e-04
                       Mass of water (kg)  =   1.000e+03
                 Total alkalinity (eq/kg)  =   1.250e-09
                    Total carbon (mol/kg)  =   0.000e+00
                       Total CO2 (mol/kg)  =   0.000e+00
                         Temperature (°C)  =  25.00
                  Electrical balance (eq)  =  -1.250e-06
 Percent error, 100*(Cat-|An|)/(Cat+|An|)  =  -0.00
                               Iterations  =   2
                                  Total H  = 1.110124e+05
                                  Total O  = 5.550622e+04

----------------------------Distribution of species----------------------------

                                               Log       Log       Log    mole V
   Species          Molality    Activity  Molality  Activity     Gamma   cm³/mol

   OH-             1.024e-07   1.012e-07    -6.990    -6.995    -0.005     -4.13
   H+              1.011e-07   1.000e-07    -6.995    -7.000    -0.005      0.00
   H2O             5.551e+01   1.000e+00     1.744    -0.000     0.000     18.07
Cl            1.000e-04
   Cl-             1.000e-04   9.885e-05    -4.000    -4.005    -0.005     18.05
H(0)          1.416e-25
   H2              7.079e-26   7.079e-26   -25.150   -25.150     0.000     28.61
Na            1.000e-04
   Na+             1.000e-04   9.885e-05    -4.000    -4.005    -0.005     -1.51
   NaOH            1.000e-21   1.001e-21   -21.000   -21.000     0.000     (0)  
O(0)          0.000e+00
   O2              0.000e+00   0.000e+00   -42.080   -42.080     0.000     30.40

------------------------------Saturation indices-------------------------------

  Phase               SI** log IAP   log K(298 K,   1 atm)

  H2(g)           -22.05    -25.15   -3.10  H2
  H2O(g)           -1.50     -0.00    1.50  H2O
  Halite           -9.58     -8.01    1.57  NaCl
  O2(g)           -39.19    -42.08   -2.89  O2

**For a gas, SI = log10(fugacity). Fugacity = pressure * phi / 1 atm.
  For ideal gases, phi = 1.

------------------
End of simulation.
------------------

------------------------------------
Reading input data for simulation 3.
------------------------------------

	TRANSPORT
	boundary_conditions 1 1
	multi_d true 1e-9 1 0.0 1 true
	flow_direction diffusion_only
	time_step 1
	 punch_cells 1
	 shifts 1
	USER_GRAPH
WARNING: No cell-lengths were read; length = 1 m assumed.
WARNING: No dispersivities were read; disp = 0 assumed.
WARNING: No porosities were read; used the value 1.00e+00 from -multi_D.
	-initial_solutions false
	-axis_titles "NaCl / (mol/kgw)" "Specific Conductance / (mS/cm)"
	-axis_scale x_axis 0 2.001
	-headings PHREEQC`s SC Ohm`s law
	10 if get(1) > 0 then plot_xy get(1), get(2) / 1e3, symbol_size = 3, y_axis = 2 
	20 if get(1) > 0 then plot_xy get(1), -current_a * 10, symbol = Square, symbol_size = 8, line_width = 2
	30 put(tot("Cl"), 1) : put(SC, 2)
	END
------------------------------------
Beginning of transport calculations.
------------------------------------

-------------------------------
Equilibrating initial solutions
-------------------------------

Using solution 1.	

-----------------------------Solution composition------------------------------

	Elements           Molality       Moles

	Cl                1.000e-04   1.000e-01
	Na                1.000e-04   1.000e-01

----------------------------Description of solution----------------------------

                                       pH  =   7.000      Charge balance
                                       pe  =   4.000      Adjusted to redox equilibrium
      Specific Conductance (µS/cm,  25°C)  = 12
                          Density (g/cm³)  =   0.99705
                               Volume (L)  = 1002.96741
                        Activity of water  =   1.000
                 Ionic strength (mol/kgw)  =   1.001e-04
                       Mass of water (kg)  =   1.000e+03
                 Total alkalinity (eq/kg)  =   1.250e-09
                    Total carbon (mol/kg)  =   0.000e+00
                       Total CO2 (mol/kg)  =   0.000e+00
                         Temperature (°C)  =  25.00
                  Electrical balance (eq)  =  -1.250e-06
 Percent error, 100*(Cat-|An|)/(Cat+|An|)  =  -0.00
                               Iterations  =   0
                                  Total H  = 1.110124e+05
                                  Total O  = 5.550622e+04

----------------------------Distribution of species----------------------------

                                               Log       Log       Log    mole V
   Species          Molality    Activity  Molality  Activity     Gamma   cm³/mol

   OH-             1.024e-07   1.012e-07    -6.990    -6.995    -0.005     -4.13
   H+              1.011e-07   1.000e-07    -6.995    -7.000    -0.005      0.00
   H2O             5.551e+01   1.000e+00     1.744    -0.000     0.000     18.07
Cl            1.000e-04
   Cl-             1.000e-04   9.885e-05    -4.000    -4.005    -0.005     18.05
H(0)          1.416e-25
   H2              7.079e-26   7.079e-26   -25.150   -25.150     0.000     28.61
Na            1.000e-04
   Na+             1.000e-04   9.885e-05    -4.000    -4.005    -0.005     -1.51
   NaOH            1.000e-21   1.001e-21   -21.000   -21.000     0.000     (0)  
O(0)          0.000e+00
   O2              0.000e+00   0.000e+00   -42.080   -42.080     0.000     30.40

------------------------------Saturation indices-------------------------------

  Phase               SI** log IAP   log K(298 K,   1 atm)

  H2(g)           -22.05    -25.15   -3.10  H2
  H2O(g)           -1.50     -0.00    1.50  H2O
  Halite           -9.58     -8.01    1.57  NaCl
  O2(g)           -39.19    -42.08   -2.89  O2

**For a gas, SI = log10(fugacity). Fugacity = pressure * phi / 1 atm.
  For ideal gases, phi = 1.

Using solution 2.	

-----------------------------Solution composition------------------------------

	Elements           Molality       Moles

	Cl                1.000e-04   1.000e-01
	Na                1.000e-04   1.000e-01

----------------------------Description of solution----------------------------

                                       pH  =   7.000      Charge balance
                                       pe  =   4.000      Adjusted to redox equilibrium
      Specific Conductance (µS/cm,  25°C)  = 12
                          Density (g/cm³)  =   0.99705
                               Volume (L)  = 1002.96741
                        Activity of water  =   1.000
                 Ionic strength (mol/kgw)  =   1.001e-04
                       Mass of water (kg)  =   1.000e+03
                 Total alkalinity (eq/kg)  =   1.250e-09
                    Total carbon (mol/kg)  =   0.000e+00
                       Total CO2 (mol/kg)  =   0.000e+00
                         Temperature (°C)  =  25.00
                  Electrical balance (eq)  =  -1.250e-06
 Percent error, 100*(Cat-|An|)/(Cat+|An|)  =  -0.00
                               Iterations  =   0
                                  Total H  = 1.110124e+05
                                  Total O  = 5.550622e+04

----------------------------Distribution of species----------------------------

                                               Log       Log       Log    mole V
   Species          Molality    Activity  Molality  Activity     Gamma   cm³/mol

   OH-             1.024e-07   1.012e-07    -6.990    -6.995    -0.005     -4.13
   H+              1.011e-07   1.000e-07    -6.995    -7.000    -0.005      0.00
   H2O             5.551e+01   1.000e+00     1.744    -0.000     0.000     18.07
Cl            1.000e-04
   Cl-             1.000e-04   9.885e-05    -4.000    -4.005    -0.005     18.05
H(0)          1.416e-25
   H2              7.079e-26   7.079e-26   -25.150   -25.150     0.000     28.61
Na            1.000e-04
   Na+             1.000e-04   9.885e-05    -4.000    -4.005    -0.005     -1.51
   NaOH            1.000e-21   1.001e-21   -21.000   -21.000     0.000     (0)  
O(0)          0.000e+00
   O2              0.000e+00   0.000e+00   -42.080   -42.080     0.000     30.40

------------------------------Saturation indices-------------------------------

  Phase               SI** log IAP   log K(298 K,   1 atm)

  H2(g)           -22.05    -25.15   -3.10  H2
  H2O(g)           -1.50     -0.00    1.50  H2O
  Halite           -9.58     -8.01    1.57  NaCl
  O2(g)           -39.19    -42.08   -2.89  O2

**For a gas, SI = log10(fugacity). Fugacity = pressure * phi / 1 atm.
  For ideal gases, phi = 1.

Transport step   1. Multicomponent diffusion run   1.

Using mix 1.	

Mixture 1.	

	  0.000e+00 Solution 0	Solution after simulation 3.                           
	  1.000e+00 Solution 1	Solution after simulation 3.                           
	  0.000e+00 Solution 2	Solution after simulation 3.                           

-----------------------------Solution composition------------------------------

	Elements           Molality       Moles

	Cl                1.000e-04   1.000e-01
	Na                1.000e-04   1.000e-01

----------------------------Description of solution----------------------------

                                       pH  =   7.000      Charge balance
                                       pe  =   4.000      Adjusted to redox equilibrium
      Specific Conductance (µS/cm,  25°C)  = 12
                          Density (g/cm³)  =   0.99705
                               Volume (L)  = 1002.96741
                        Activity of water  =   1.000
                 Ionic strength (mol/kgw)  =   1.001e-04
                       Mass of water (kg)  =   1.000e+03
                 Total alkalinity (eq/kg)  =   1.250e-09
                    Total carbon (mol/kg)  =   0.000e+00
                       Total CO2 (mol/kg)  =   0.000e+00
                         Temperature (°C)  =  25.00
                  Electrical balance (eq)  =  -1.250e-06
 Percent error, 100*(Cat-|An|)/(Cat+|An|)  =  -0.00
                               Iterations  =   0
                                  Total H  = 1.110124e+05
                                  Total O  = 5.550622e+04

----------------------------Distribution of species----------------------------

                                               Log       Log       Log    mole V
   Species          Molality    Activity  Molality  Activity     Gamma   cm³/mol

   OH-             1.024e-07   1.012e-07    -6.990    -6.995    -0.005     -4.13
   H+              1.011e-07   1.000e-07    -6.995    -7.000    -0.005      0.00
   H2O             5.551e+01   1.000e+00     1.744    -0.000     0.000     18.07
Cl            1.000e-04
   Cl-             1.000e-04   9.885e-05    -4.000    -4.005    -0.005     18.05
H(0)          1.416e-25
   H2              7.079e-26   7.079e-26   -25.150   -25.150     0.000     28.61
Na            1.000e-04
   Na+             1.000e-04   9.885e-05    -4.000    -4.005    -0.005     -1.51
   NaOH            1.000e-21   1.001e-21   -21.000   -21.000     0.000     (0)  
O(0)          0.000e+00
   O2              0.000e+00   0.000e+00   -42.080   -42.080     0.000     30.40

------------------------------Saturation indices-------------------------------

  Phase               SI** log IAP   log K(298 K,   1 atm)

  H2(g)           -22.05    -25.15   -3.10  H2
  H2O(g)           -1.50     -0.00    1.50  H2O
  Halite           -9.58     -8.01    1.57  NaCl
  O2(g)           -39.19    -42.08   -2.89  O2

**For a gas, SI = log10(fugacity). Fugacity = pressure * phi / 1 atm.
  For ideal gases, phi = 1.

Using solution 2.	Solution after simulation 3.

-----------------------------Solution composition------------------------------

	Elements           Molality       Moles

	Cl                1.000e-04   1.000e-01
	Na                1.000e-04   1.000e-01

----------------------------Description of solution----------------------------

                                       pH  =   7.000      Charge balance
                                       pe  =  11.718      Adjusted to redox equilibrium
      Specific Conductance (µS/cm,  25°C)  = 12
                          Density (g/cm³)  =   0.99705
                               Volume (L)  = 1002.96741
                        Activity of water  =   1.000
                 Ionic strength (mol/kgw)  =   1.001e-04
                       Mass of water (kg)  =   1.000e+03
                 Total alkalinity (eq/kg)  =   1.237e-09
                    Total carbon (mol/kg)  =   0.000e+00
                       Total CO2 (mol/kg)  =   0.000e+00
                         Temperature (°C)  =  25.00
                  Electrical balance (eq)  =  -1.250e-06
 Percent error, 100*(Cat-|An|)/(Cat+|An|)  =  -0.00
                               Iterations  =   7
                                  Total H  = 1.110124e+05
                                  Total O  = 5.550622e+04

----------------------------Distribution of species----------------------------

                                               Log       Log       Log    mole V
   Species          Molality    Activity  Molality  Activity     Gamma   cm³/mol

   OH-             1.024e-07   1.012e-07    -6.990    -6.995    -0.005     -4.13
   H+              1.012e-07   1.000e-07    -6.995    -7.000    -0.005      0.00
   H2O             5.551e+01   1.000e+00     1.744    -0.000     0.000     18.07
Cl            1.000e-04
   Cl-             1.000e-04   9.885e-05    -4.000    -4.005    -0.005     18.05
H(0)          0.000e+00
   H2              0.000e+00   0.000e+00   -40.587   -40.587     0.000     28.61
Na            1.000e-04
   Na+             1.000e-04   9.885e-05    -4.000    -4.005    -0.005     -1.51
   NaOH            1.000e-21   1.000e-21   -21.000   -21.000     0.000     (0)  
O(0)          1.242e-11
   O2              6.209e-12   6.209e-12   -11.207   -11.207     0.000     30.40

------------------------------Saturation indices-------------------------------

  Phase               SI** log IAP   log K(298 K,   1 atm)

  H2(g)           -37.49    -40.59   -3.10  H2
  H2O(g)           -1.50     -0.00    1.50  H2O
  Halite           -9.58     -8.01    1.57  NaCl
  O2(g)            -8.31    -11.21   -2.89  O2

**For a gas, SI = log10(fugacity). Fugacity = pressure * phi / 1 atm.
  For ideal gases, phi = 1.

------------------
End of simulation.
------------------

------------------------------------
Reading input data for simulation 4.
------------------------------------

	REACTION 0-2
	NaCl 1
	 200
	TRANSPORT
	shifts 11
	END
------------------------------------
Column data retained from former run
------------------------------------

------------------------------------
Beginning of transport calculations.
------------------------------------

-------------------------------
Equilibrating initial solutions
-------------------------------

Using solution 1.	Solution after simulation 3.

-----------------------------Solution composition------------------------------

	Elements           Molality       Moles

	Cl                1.000e-04   1.000e-01
	Na                1.000e-04   1.000e-01

----------------------------Description of solution----------------------------

                                       pH  =   7.000      Charge balance
                                       pe  =   4.000      Adjusted to redox equilibrium
      Specific Conductance (µS/cm,  25°C)  = 12
                          Density (g/cm³)  =   0.99705
                               Volume (L)  = 1002.96741
                        Activity of water  =   1.000
                 Ionic strength (mol/kgw)  =   1.001e-04
                       Mass of water (kg)  =   1.000e+03
                 Total alkalinity (eq/kg)  =   1.250e-09
                    Total carbon (mol/kg)  =   0.000e+00
                       Total CO2 (mol/kg)  =   0.000e+00
                         Temperature (°C)  =  25.00
                  Electrical balance (eq)  =  -1.250e-06
 Percent error, 100*(Cat-|An|)/(Cat+|An|)  =  -0.00
                               Iterations  =   0
                                  Total H  = 1.110124e+05
                                  Total O  = 5.550622e+04

----------------------------Distribution of species----------------------------

                                               Log       Log       Log    mole V
   Species          Molality    Activity  Molality  Activity     Gamma   cm³/mol

   OH-             1.024e-07   1.012e-07    -6.990    -6.995    -0.005     -4.13
   H+              1.011e-07   1.000e-07    -6.995    -7.000    -0.005      0.00
   H2O             5.551e+01   1.000e+00     1.744    -0.000     0.000     18.07
Cl            1.000e-04
   Cl-             1.000e-04   9.885e-05    -4.000    -4.005    -0.005     18.05
H(0)          1.416e-25
   H2              7.079e-26   7.079e-26   -25.150   -25.150     0.000     28.61
Na            1.000e-04
   Na+             1.000e-04   9.885e-05    -4.000    -4.005    -0.005     -1.51
   NaOH            1.000e-21   1.001e-21   -21.000   -21.000     0.000     (0)  
O(0)          0.000e+00
   O2              0.000e+00   0.000e+00   -42.080   -42.080     0.000     30.40

------------------------------Saturation indices-------------------------------

  Phase               SI** log IAP   log K(298 K,   1 atm)

  H2(g)           -22.05    -25.15   -3.10  H2
  H2O(g)           -1.50     -0.00    1.50  H2O
  Halite           -9.58     -8.01    1.57  NaCl
  O2(g)           -39.19    -42.08   -2.89  O2

**For a gas, SI = log10(fugacity). Fugacity = pressure * phi / 1 atm.
  For ideal gases, phi = 1.

Using solution 2.	Solution after simulation 3.

-----------------------------Solution composition------------------------------

	Elements           Molality       Moles

	Cl                1.000e-04   1.000e-01
	Na                1.000e-04   1.000e-01

----------------------------Description of solution----------------------------

                                       pH  =   7.000      Charge balance
                                       pe  =  11.718      Adjusted to redox equilibrium
      Specific Conductance (µS/cm,  25°C)  = 12
                          Density (g/cm³)  =   0.99705
                               Volume (L)  = 1002.96741
                        Activity of water  =   1.000
                 Ionic strength (mol/kgw)  =   1.001e-04
                       Mass of water (kg)  =   1.000e+03
                 Total alkalinity (eq/kg)  =   1.237e-09
                    Total carbon (mol/kg)  =   0.000e+00
                       Total CO2 (mol/kg)  =   0.000e+00
                         Temperature (°C)  =  25.00
                  Electrical balance (eq)  =  -1.250e-06
 Percent error, 100*(Cat-|An|)/(Cat+|An|)  =  -0.00
                               Iterations  =   0
                                  Total H  = 1.110124e+05
                                  Total O  = 5.550622e+04

----------------------------Distribution of species----------------------------

                                               Log       Log       Log    mole V
   Species          Molality    Activity  Molality  Activity     Gamma   cm³/mol

   OH-             1.024e-07   1.012e-07    -6.990    -6.995    -0.005     -4.13
   H+              1.012e-07   1.000e-07    -6.995    -7.000    -0.005      0.00
   H2O             5.551e+01   1.000e+00     1.744    -0.000     0.000     18.07
Cl            1.000e-04
   Cl-             1.000e-04   9.885e-05    -4.000    -4.005    -0.005     18.05
H(0)          0.000e+00
   H2              0.000e+00   0.000e+00   -40.587   -40.587     0.000     28.61
Na            1.000e-04
   Na+             1.000e-04   9.885e-05    -4.000    -4.005    -0.005     -1.51
   NaOH            1.000e-21   1.000e-21   -21.000   -21.000     0.000     (0)  
O(0)          1.242e-11
   O2              6.209e-12   6.209e-12   -11.207   -11.207     0.000     30.40

------------------------------Saturation indices-------------------------------

  Phase               SI** log IAP   log K(298 K,   1 atm)

  H2(g)           -37.49    -40.59   -3.10  H2
  H2O(g)           -1.50     -0.00    1.50  H2O
  Halite           -9.58     -8.01    1.57  NaCl
  O2(g)            -8.31    -11.21   -2.89  O2

**For a gas, SI = log10(fugacity). Fugacity = pressure * phi / 1 atm.
  For ideal gases, phi = 1.

Transport step   1. Multicomponent diffusion run   1.

Using mix 1.	
Using reaction 1.	

Mixture 1.	

	  0.000e+00 Solution 0	Solution after simulation 4.                           
	  1.000e+00 Solution 1	Solution after simulation 4.                           
	  0.000e+00 Solution 2	Solution after simulation 4.                           

Reaction 1.	

	  2.000e+02 moles of the following reaction have been added:

	                 Relative
	Reactant            moles

	NaCl                 1.00000

	                 Relative
	Element             moles
	Cl                   1.00000
	Na                   1.00000

-----------------------------Solution composition------------------------------

	Elements           Molality       Moles

	Cl                2.001e-01   2.001e+02
	Na                2.001e-01   2.001e+02

----------------------------Description of solution----------------------------

                                       pH  =   6.975      Charge balance
                                       pe  =  -1.311      Adjusted to redox equilibrium
      Specific Conductance (µS/cm,  25°C)  = 20256
                          Density (g/cm³)  =   1.00519
                               Volume (L)  = 1006.47280
                        Activity of water  =   0.993
                 Ionic strength (mol/kgw)  =   2.001e-01
                       Mass of water (kg)  =   1.000e+03
                 Total alkalinity (eq/kg)  =   1.250e-09
                    Total carbon (mol/kg)  =   0.000e+00
                       Total CO2 (mol/kg)  =   0.000e+00
                         Temperature (°C)  =  25.00
                  Electrical balance (eq)  =  -1.250e-06
 Percent error, 100*(Cat-|An|)/(Cat+|An|)  =  -0.00
                               Iterations  =  14
                                  Total H  = 1.110124e+05
                                  Total O  = 5.550622e+04

----------------------------Distribution of species----------------------------

                                               Log       Log       Log    mole V
   Species          Molality    Activity  Molality  Activity     Gamma   cm³/mol

   OH-             1.342e-07   9.483e-08    -6.872    -7.023    -0.151     -3.50
   H+              1.329e-07   1.060e-07    -6.876    -6.975    -0.098      0.00
   H2O             5.551e+01   9.932e-01     1.744    -0.003     0.000     18.07
Cl            2.001e-01
   Cl-             2.001e-01   1.432e-01    -0.699    -0.844    -0.145     18.46
H(0)          6.359e-15
   H2              3.180e-15   3.329e-15   -14.498   -14.478     0.020     28.61
Na            2.001e-01
   Na+             2.001e-01   1.496e-01    -0.699    -0.825    -0.126     -0.93
   NaOH            1.355e-18   1.419e-18   -17.868   -17.848     0.020     (0)  
O(0)          0.000e+00
   O2              0.000e+00   0.000e+00   -63.451   -63.431     0.020     30.40

------------------------------Saturation indices-------------------------------

  Phase               SI** log IAP   log K(298 K,   1 atm)

  H2(g)           -11.38    -14.48   -3.10  H2
  H2O(g)           -1.51     -0.00    1.50  H2O
  Halite           -3.24     -1.67    1.57  NaCl
  O2(g)           -60.54    -63.43   -2.89  O2

**For a gas, SI = log10(fugacity). Fugacity = pressure * phi / 1 atm.
  For ideal gases, phi = 1.

Using solution 2.	Solution after simulation 4.
Using reaction 2.	

Reaction 2.	

	  2.000e+02 moles of the following reaction have been added:

	                 Relative
	Reactant            moles

	NaCl                 1.00000

	                 Relative
	Element             moles
	Cl                   1.00000
	Na                   1.00000

-----------------------------Solution composition------------------------------

	Elements           Molality       Moles

	Cl                2.001e-01   2.001e+02
	Na                2.001e-01   2.001e+02

----------------------------Description of solution----------------------------

                                       pH  =   6.975      Charge balance
                                       pe  =  11.796      Adjusted to redox equilibrium
      Specific Conductance (µS/cm,  25°C)  = 20256
                          Density (g/cm³)  =   1.00519
                               Volume (L)  = 1006.47280
                        Activity of water  =   0.993
                 Ionic strength (mol/kgw)  =   2.001e-01
                       Mass of water (kg)  =   1.000e+03
                 Total alkalinity (eq/kg)  =   1.224e-09
                    Total carbon (mol/kg)  =   0.000e+00
                       Total CO2 (mol/kg)  =   0.000e+00
                         Temperature (°C)  =  25.00
                  Electrical balance (eq)  =  -1.252e-06
 Percent error, 100*(Cat-|An|)/(Cat+|An|)  =  -0.00
                               Iterations  =   8
                                  Total H  = 1.110124e+05
                                  Total O  = 5.550622e+04

----------------------------Distribution of species----------------------------

                                               Log       Log       Log    mole V
   Species          Molality    Activity  Molality  Activity     Gamma   cm³/mol

   OH-             1.341e-07   9.482e-08    -6.872    -7.023    -0.151     -3.50
   H+              1.329e-07   1.060e-07    -6.876    -6.975    -0.098      0.00
   H2O             5.551e+01   9.932e-01     1.744    -0.003     0.000     18.07
Cl            2.001e-01
   Cl-             2.001e-01   1.432e-01    -0.699    -0.844    -0.145     18.46
H(0)          0.000e+00
   H2              0.000e+00   0.000e+00   -40.711   -40.691     0.020     28.61
Na            2.001e-01
   Na+             2.001e-01   1.496e-01    -0.699    -0.825    -0.126     -0.93
   NaOH            1.355e-18   1.419e-18   -17.868   -17.848     0.020     (0)  
O(0)          1.893e-11
   O2              9.466e-12   9.912e-12   -11.024   -11.004     0.020     30.40

------------------------------Saturation indices-------------------------------

  Phase               SI** log IAP   log K(298 K,   1 atm)

  H2(g)           -37.59    -40.69   -3.10  H2
  H2O(g)           -1.51     -0.00    1.50  H2O
  Halite           -3.24     -1.67    1.57  NaCl
  O2(g)            -8.11    -11.00   -2.89  O2

**For a gas, SI = log10(fugacity). Fugacity = pressure * phi / 1 atm.
  For ideal gases, phi = 1.

Transport step   2. Multicomponent diffusion run   1.

Using mix 1.	
Using reaction 1.	

Mixture 1.	

	  0.000e+00 Solution 0	Solution after simulation 4.                           
	  1.000e+00 Solution 1	Solution after simulation 4.                           
	  0.000e+00 Solution 2	Solution after simulation 4.                           

Reaction 1.	

	  2.000e+02 moles of the following reaction have been added:

	                 Relative
	Reactant            moles

	NaCl                 1.00000

	                 Relative
	Element             moles
	Cl                   1.00000
	Na                   1.00000

-----------------------------Solution composition------------------------------

	Elements           Molality       Moles

	Cl                4.001e-01   4.001e+02
	Na                4.001e-01   4.001e+02

----------------------------Description of solution----------------------------

                                       pH  =   6.965      Charge balance
                                       pe  =  -1.570      Adjusted to redox equilibrium
      Specific Conductance (µS/cm,  25°C)  = 37872
                          Density (g/cm³)  =   1.01312
                               Volume (L)  = 1010.13099
                        Activity of water  =   0.986
                 Ionic strength (mol/kgw)  =   4.001e-01
                       Mass of water (kg)  =   1.000e+03
                 Total alkalinity (eq/kg)  =   1.250e-09
                    Total carbon (mol/kg)  =   0.000e+00
                       Total CO2 (mol/kg)  =   0.000e+00
                         Temperature (°C)  =  25.00
                  Electrical balance (eq)  =  -1.250e-06
 Percent error, 100*(Cat-|An|)/(Cat+|An|)  =  -0.00
                               Iterations  =   5
                                  Total H  = 1.110124e+05
                                  Total O  = 5.550622e+04

----------------------------Distribution of species----------------------------

                                               Log       Log       Log    mole V
   Species          Molality    Activity  Molality  Activity     Gamma   cm³/mol

   OH-             1.416e-07   9.213e-08    -6.849    -7.036    -0.187     -3.11
   H+              1.404e-07   1.084e-07    -6.853    -6.965    -0.112      0.00
   H2O             5.551e+01   9.864e-01     1.744    -0.006     0.000     18.07
Cl            4.001e-01
   Cl-             4.001e-01   2.661e-01    -0.398    -0.575    -0.177     18.62
H(0)          2.095e-14
   H2              1.047e-14   1.148e-14   -13.980   -13.940     0.040     28.61
Na            4.001e-01
   Na+             4.001e-01   2.887e-01    -0.398    -0.540    -0.142     -0.72
   NaOH            2.425e-18   2.659e-18   -17.615   -17.575     0.040     (0)  
O(0)          0.000e+00
   O2              0.000e+00   0.000e+00   -64.552   -64.512     0.040     30.40

------------------------------Saturation indices-------------------------------

  Phase               SI** log IAP   log K(298 K,   1 atm)

  H2(g)           -10.84    -13.94   -3.10  H2
  H2O(g)           -1.51     -0.01    1.50  H2O
  Halite           -2.68     -1.11    1.57  NaCl
  O2(g)           -61.62    -64.51   -2.89  O2

**For a gas, SI = log10(fugacity). Fugacity = pressure * phi / 1 atm.
  For ideal gases, phi = 1.

Using solution 2.	Solution after simulation 4.
Using reaction 2.	

Reaction 2.	

	  2.000e+02 moles of the following reaction have been added:

	                 Relative
	Reactant            moles

	NaCl                 1.00000

	                 Relative
	Element             moles
	Cl                   1.00000
	Na                   1.00000

-----------------------------Solution composition------------------------------

	Elements           Molality       Moles

	Cl                4.001e-01   4.001e+02
	Na                4.001e-01   4.001e+02

----------------------------Description of solution----------------------------

                                       pH  =   6.933      Charge balance
                                       pe  =  12.535      Adjusted to redox equilibrium
      Specific Conductance (µS/cm,  25°C)  = 37872
                          Density (g/cm³)  =   1.01312
                               Volume (L)  = 1010.13099
                        Activity of water  =   0.986
                 Ionic strength (mol/kgw)  =   4.001e-01
                       Mass of water (kg)  =   1.000e+03
                 Total alkalinity (eq/kg)  =  -1.977e-08
                    Total carbon (mol/kg)  =   0.000e+00
                       Total CO2 (mol/kg)  =   0.000e+00
                         Temperature (°C)  =  25.00
                  Electrical balance (eq)  =  -1.252e-06
 Percent error, 100*(Cat-|An|)/(Cat+|An|)  =  -0.00
                               Iterations  =   8
                                  Total H  = 1.110124e+05
                                  Total O  = 5.550622e+04

----------------------------Distribution of species----------------------------

                                               Log       Log       Log    mole V
   Species          Molality    Activity  Molality  Activity     Gamma   cm³/mol

   H+              1.512e-07   1.167e-07    -6.820    -6.933    -0.112      0.00
   OH-             1.315e-07   8.552e-08    -6.881    -7.068    -0.187     -3.11
   H2O             5.551e+01   9.864e-01     1.744    -0.006     0.000     18.07
Cl            4.001e-01
   Cl-             4.001e-01   2.661e-01    -0.398    -0.575    -0.177     18.62
H(0)          0.000e+00
   H2              0.000e+00   0.000e+00   -42.125   -42.085     0.040     28.61
Na            4.001e-01
   Na+             4.001e-01   2.887e-01    -0.398    -0.540    -0.142     -0.72
   NaOH            2.251e-18   2.468e-18   -17.648   -17.608     0.040     (0)  
O(0)          1.096e-08
   O2              5.478e-09   6.007e-09    -8.261    -8.221     0.040     30.40

------------------------------Saturation indices-------------------------------

  Phase               SI** log IAP   log K(298 K,   1 atm)

  H2(g)           -38.98    -42.09   -3.10  H2
  H2O(g)           -1.51     -0.01    1.50  H2O
  Halite           -2.68     -1.11    1.57  NaCl
  O2(g)            -5.33     -8.22   -2.89  O2

**For a gas, SI = log10(fugacity). Fugacity = pressure * phi / 1 atm.
  For ideal gases, phi = 1.

Transport step   3. Multicomponent diffusion run   1.

Using mix 1.	
Using reaction 1.	

Mixture 1.	

	  0.000e+00 Solution 0	Solution after simulation 4.                           
	  1.000e+00 Solution 1	Solution after simulation 4.                           
	  0.000e+00 Solution 2	Solution after simulation 4.                           

Reaction 1.	

	  2.000e+02 moles of the following reaction have been added:

	                 Relative
	Reactant            moles

	NaCl                 1.00000

	                 Relative
	Element             moles
	Cl                   1.00000
	Na                   1.00000

-----------------------------Solution composition------------------------------

	Elements           Molality       Moles

	Cl                6.001e-01   6.001e+02
	Na                6.001e-01   6.001e+02

----------------------------Description of solution----------------------------

                                       pH  =   6.959      Charge balance
                                       pe  =  -1.264      Adjusted to redox equilibrium
      Specific Conductance (µS/cm,  25°C)  = 53980
                          Density (g/cm³)  =   1.02090
                               Volume (L)  = 1013.88417
                        Activity of water  =   0.980
                 Ionic strength (mol/kgw)  =   6.001e-01
                       Mass of water (kg)  =   1.000e+03
                 Total alkalinity (eq/kg)  =   1.250e-09
                    Total carbon (mol/kg)  =   0.000e+00
                       Total CO2 (mol/kg)  =   0.000e+00
                         Temperature (°C)  =  25.00
                  Electrical balance (eq)  =  -1.250e-06
 Percent error, 100*(Cat-|An|)/(Cat+|An|)  =  -0.00
                               Iterations  =   4
                                  Total H  = 1.110124e+05
                                  Total O  = 5.550622e+04

----------------------------Distribution of species----------------------------

                                               Log       Log       Log    mole V
   Species          Molality    Activity  Molality  Activity     Gamma   cm³/mol

   OH-             1.461e-07   9.028e-08    -6.835    -7.044    -0.209     -2.75
   H+              1.448e-07   1.098e-07    -6.839    -6.959    -0.120      0.00
   H2O             5.551e+01   9.796e-01     1.744    -0.009     0.000     18.07
Cl            6.001e-01
   Cl-             6.001e-01   3.829e-01    -0.222    -0.417    -0.195     18.75
H(0)          5.014e-15
   H2              2.507e-15   2.878e-15   -14.601   -14.541     0.060     28.61
Na            6.001e-01
   Na+             6.001e-01   4.301e-01    -0.222    -0.366    -0.145     -0.56
   NaOH            3.382e-18   3.883e-18   -17.471   -17.411     0.060     (0)  
O(0)          0.000e+00
   O2              0.000e+00   0.000e+00   -63.376   -63.316     0.060     30.40

------------------------------Saturation indices-------------------------------

  Phase               SI** log IAP   log K(298 K,   1 atm)

  H2(g)           -11.44    -14.54   -3.10  H2
  H2O(g)           -1.51     -0.01    1.50  H2O
  Halite           -2.35     -0.78    1.57  NaCl
  O2(g)           -60.42    -63.32   -2.89  O2

**For a gas, SI = log10(fugacity). Fugacity = pressure * phi / 1 atm.
  For ideal gases, phi = 1.

Using solution 2.	Solution after simulation 4.
Using reaction 2.	

Reaction 2.	

	  2.000e+02 moles of the following reaction have been added:

	                 Relative
	Reactant            moles

	NaCl                 1.00000

	                 Relative
	Element             moles
	Cl                   1.00000
	Na                   1.00000

-----------------------------Solution composition------------------------------

	Elements           Molality       Moles

	Cl                6.001e-01   6.001e+02
	Na                6.001e-01   6.001e+02

----------------------------Description of solution----------------------------

                                       pH  =   6.870      Charge balance
                                       pe  =  12.716      Adjusted to redox equilibrium
      Specific Conductance (µS/cm,  25°C)  = 53980
                          Density (g/cm³)  =   1.02090
                               Volume (L)  = 1013.88418
                        Activity of water  =   0.980
                 Ionic strength (mol/kgw)  =   6.001e-01
                       Mass of water (kg)  =   1.000e+03
                 Total alkalinity (eq/kg)  =  -5.902e-08
                    Total carbon (mol/kg)  =   0.000e+00
                       Total CO2 (mol/kg)  =   0.000e+00
                         Temperature (°C)  =  25.00
                  Electrical balance (eq)  =  -1.251e-06
 Percent error, 100*(Cat-|An|)/(Cat+|An|)  =  -0.00
                               Iterations  =   4
                                  Total H  = 1.110124e+05
                                  Total O  = 5.550622e+04

----------------------------Distribution of species----------------------------

                                               Log       Log       Log    mole V
   Species          Molality    Activity  Molality  Activity     Gamma   cm³/mol

   H+              1.779e-07   1.349e-07    -6.750    -6.870    -0.120      0.00
   OH-             1.189e-07   7.348e-08    -6.925    -7.134    -0.209     -2.75
   H2O             5.551e+01   9.796e-01     1.744    -0.009     0.000     18.07
Cl            6.001e-01
   Cl-             6.001e-01   3.829e-01    -0.222    -0.417    -0.195     18.75
H(0)          0.000e+00
   H2              0.000e+00   0.000e+00   -42.381   -42.321     0.060     28.61
Na            6.001e-01
   Na+             6.001e-01   4.301e-01    -0.222    -0.366    -0.145     -0.56
   NaOH            2.753e-18   3.161e-18   -17.560   -17.500     0.060     (0)  
O(0)          3.059e-08
   O2              1.530e-08   1.756e-08    -7.815    -7.755     0.060     30.40

------------------------------Saturation indices-------------------------------

  Phase               SI** log IAP   log K(298 K,   1 atm)

  H2(g)           -39.22    -42.32   -3.10  H2
  H2O(g)           -1.51     -0.01    1.50  H2O
  Halite           -2.35     -0.78    1.57  NaCl
  O2(g)            -4.86     -7.76   -2.89  O2

**For a gas, SI = log10(fugacity). Fugacity = pressure * phi / 1 atm.
  For ideal gases, phi = 1.

Transport step   4. Multicomponent diffusion run   1.

Using mix 1.	
Using reaction 1.	

Mixture 1.	

	  0.000e+00 Solution 0	Solution after simulation 4.                           
	  1.000e+00 Solution 1	Solution after simulation 4.                           
	  0.000e+00 Solution 2	Solution after simulation 4.                           

Reaction 1.	

	  2.000e+02 moles of the following reaction have been added:

	                 Relative
	Reactant            moles

	NaCl                 1.00000

	                 Relative
	Element             moles
	Cl                   1.00000
	Na                   1.00000

-----------------------------Solution composition------------------------------

	Elements           Molality       Moles

	Cl                8.001e-01   8.001e+02
	Na                8.001e-01   8.001e+02

----------------------------Description of solution----------------------------

                                       pH  =   6.955      Charge balance
                                       pe  =  -1.513      Adjusted to redox equilibrium
      Specific Conductance (µS/cm,  25°C)  = 68913
                          Density (g/cm³)  =   1.02854
                               Volume (L)  = 1017.71271
                        Activity of water  =   0.973
                 Ionic strength (mol/kgw)  =   8.001e-01
                       Mass of water (kg)  =   1.000e+03
                 Total alkalinity (eq/kg)  =   1.250e-09
                    Total carbon (mol/kg)  =   0.000e+00
                       Total CO2 (mol/kg)  =   0.000e+00
                         Temperature (°C)  =  25.00
                  Electrical balance (eq)  =  -1.250e-06
 Percent error, 100*(Cat-|An|)/(Cat+|An|)  =  -0.00
                               Iterations  =   4
                                  Total H  = 1.110124e+05
                                  Total O  = 5.550622e+04

----------------------------Distribution of species----------------------------

                                               Log       Log       Log    mole V
   Species          Molality    Activity  Molality  Activity     Gamma   cm³/mol

   OH-             1.491e-07   8.884e-08    -6.826    -7.051    -0.225     -2.42
   H+              1.479e-07   1.108e-07    -6.830    -6.955    -0.125      0.00
   H2O             5.551e+01   9.728e-01     1.744    -0.012     0.000     18.07
Cl            8.001e-01
   Cl-             8.001e-01   4.966e-01    -0.097    -0.304    -0.207     18.85
H(0)          1.532e-14
   H2              7.662e-15   9.212e-15   -14.116   -14.036     0.080     28.61
Na            8.001e-01
   Na+             8.001e-01   5.771e-01    -0.097    -0.239    -0.142     -0.42
   NaOH            4.264e-18   5.127e-18   -17.370   -17.290     0.080     (0)  
O(0)          0.000e+00
   O2              0.000e+00   0.000e+00   -64.413   -64.333     0.080     30.40

------------------------------Saturation indices-------------------------------

  Phase               SI** log IAP   log K(298 K,   1 atm)

  H2(g)           -10.93    -14.04   -3.10  H2
  H2O(g)           -1.51     -0.01    1.50  H2O
  Halite           -2.11     -0.54    1.57  NaCl
  O2(g)           -61.44    -64.33   -2.89  O2

**For a gas, SI = log10(fugacity). Fugacity = pressure * phi / 1 atm.
  For ideal gases, phi = 1.

Using solution 2.	Solution after simulation 4.
Using reaction 2.	

Reaction 2.	

	  2.000e+02 moles of the following reaction have been added:

	                 Relative
	Reactant            moles

	NaCl                 1.00000

	                 Relative
	Element             moles
	Cl                   1.00000
	Na                   1.00000

-----------------------------Solution composition------------------------------

	Elements           Molality       Moles

	Cl                8.001e-01   8.001e+02
	Na                8.001e-01   8.001e+02

----------------------------Description of solution----------------------------

                                       pH  =   6.789      Charge balance
                                       pe  =  12.873      Adjusted to redox equilibrium
      Specific Conductance (µS/cm,  25°C)  = 68913
                          Density (g/cm³)  =   1.02854
                               Volume (L)  = 1017.71272
                        Activity of water  =   0.973
                 Ionic strength (mol/kgw)  =   8.001e-01
                       Mass of water (kg)  =   1.000e+03
                 Total alkalinity (eq/kg)  =  -1.150e-07
                    Total carbon (mol/kg)  =   0.000e+00
                       Total CO2 (mol/kg)  =   0.000e+00
                         Temperature (°C)  =  25.00
                  Electrical balance (eq)  =  -1.251e-06
 Percent error, 100*(Cat-|An|)/(Cat+|An|)  =  -0.00
                               Iterations  =   4
                                  Total H  = 1.110124e+05
                                  Total O  = 5.550622e+04

----------------------------Distribution of species----------------------------

                                               Log       Log       Log    mole V
   Species          Molality    Activity  Molality  Activity     Gamma   cm³/mol

   H+              2.167e-07   1.624e-07    -6.664    -6.789    -0.125      0.00
   OH-             1.017e-07   6.062e-08    -6.993    -7.217    -0.225     -2.42
   H2O             5.551e+01   9.728e-01     1.744    -0.012     0.000     18.07
Cl            8.001e-01
   Cl-             8.001e-01   4.966e-01    -0.097    -0.304    -0.207     18.85
H(0)          0.000e+00
   H2              0.000e+00   0.000e+00   -42.555   -42.475     0.080     28.61
Na            8.001e-01
   Na+             8.001e-01   5.771e-01    -0.097    -0.239    -0.142     -0.42
   NaOH            2.910e-18   3.498e-18   -17.536   -17.456     0.080     (0)  
O(0)          5.856e-08
   O2              2.928e-08   3.520e-08    -7.533    -7.453     0.080     30.40

------------------------------Saturation indices-------------------------------

  Phase               SI** log IAP   log K(298 K,   1 atm)

  H2(g)           -39.37    -42.48   -3.10  H2
  H2O(g)           -1.51     -0.01    1.50  H2O
  Halite           -2.11     -0.54    1.57  NaCl
  O2(g)            -4.56     -7.45   -2.89  O2

**For a gas, SI = log10(fugacity). Fugacity = pressure * phi / 1 atm.
  For ideal gases, phi = 1.

Transport step   5. Multicomponent diffusion run   1.

Using mix 1.	
Using reaction 1.	

Mixture 1.	

	  0.000e+00 Solution 0	Solution after simulation 4.                           
	  1.000e+00 Solution 1	Solution after simulation 4.                           
	  0.000e+00 Solution 2	Solution after simulation 4.                           

Reaction 1.	

	  2.000e+02 moles of the following reaction have been added:

	                 Relative
	Reactant            moles

	NaCl                 1.00000

	                 Relative
	Element             moles
	Cl                   1.00000
	Na                   1.00000

-----------------------------Solution composition------------------------------

	Elements           Molality       Moles

	Cl                1.000e+00   1.000e+03
	Na                1.000e+00   1.000e+03

----------------------------Description of solution----------------------------

                                       pH  =   6.953      Charge balance
                                       pe  =  -1.369      Adjusted to redox equilibrium
      Specific Conductance (µS/cm,  25°C)  = 82858
                          Density (g/cm³)  =   1.03606
                               Volume (L)  = 1021.60552
                        Activity of water  =   0.966
                 Ionic strength (mol/kgw)  =   1.000e+00
                       Mass of water (kg)  =   1.000e+03
                 Total alkalinity (eq/kg)  =   1.250e-09
                    Total carbon (mol/kg)  =   0.000e+00
                       Total CO2 (mol/kg)  =   0.000e+00
                         Temperature (°C)  =  25.00
                  Electrical balance (eq)  =  -1.250e-06
 Percent error, 100*(Cat-|An|)/(Cat+|An|)  =  -0.00
                               Iterations  =   4
                                  Total H  = 1.110124e+05
                                  Total O  = 5.550622e+04

----------------------------Distribution of species----------------------------

                                               Log       Log       Log    mole V
   Species          Molality    Activity  Molality  Activity     Gamma   cm³/mol

   OH-             1.514e-07   8.765e-08    -6.820    -7.057    -0.237     -2.10
   H+              1.501e-07   1.116e-07    -6.824    -6.953    -0.129      0.00
   H2O             5.551e+01   9.660e-01     1.744    -0.015     0.000     18.07
Cl            1.000e+00
   Cl-             1.000e+00   6.087e-01     0.000    -0.216    -0.216     18.94
H(0)          7.667e-15
   H2              3.834e-15   4.826e-15   -14.416   -14.316     0.100     28.61
Na            1.000e+00
   Na+             1.000e+00   7.313e-01     0.000    -0.136    -0.136     -0.31
   NaOH            5.091e-18   6.410e-18   -17.293   -17.193     0.100     (0)  
O(0)          0.000e+00
   O2              0.000e+00   0.000e+00   -63.877   -63.777     0.100     30.40

------------------------------Saturation indices-------------------------------

  Phase               SI** log IAP   log K(298 K,   1 atm)

  H2(g)           -11.22    -14.32   -3.10  H2
  H2O(g)           -1.52     -0.02    1.50  H2O
  Halite           -1.92     -0.35    1.57  NaCl
  O2(g)           -60.88    -63.78   -2.89  O2

**For a gas, SI = log10(fugacity). Fugacity = pressure * phi / 1 atm.
  For ideal gases, phi = 1.

Using solution 2.	Solution after simulation 4.
Using reaction 2.	

Reaction 2.	

	  2.000e+02 moles of the following reaction have been added:

	                 Relative
	Reactant            moles

	NaCl                 1.00000

	                 Relative
	Element             moles
	Cl                   1.00000
	Na                   1.00000

-----------------------------Solution composition------------------------------

	Elements           Molality       Moles

	Cl                1.000e+00   1.000e+03
	Na                1.000e+00   1.000e+03

----------------------------Description of solution----------------------------

                                       pH  =   6.697      Charge balance
                                       pe  =  13.024      Adjusted to redox equilibrium
      Specific Conductance (µS/cm,  25°C)  = 82858
                          Density (g/cm³)  =   1.03606
                               Volume (L)  = 1021.60553
                        Activity of water  =   0.966
                 Ionic strength (mol/kgw)  =   1.000e+00
                       Mass of water (kg)  =   1.000e+03
                 Total alkalinity (eq/kg)  =  -1.864e-07
                    Total carbon (mol/kg)  =   0.000e+00
                       Total CO2 (mol/kg)  =   0.000e+00
                         Temperature (°C)  =  25.00
                  Electrical balance (eq)  =  -1.251e-06
 Percent error, 100*(Cat-|An|)/(Cat+|An|)  =  -0.00
                               Iterations  =   4
                                  Total H  = 1.110124e+05
                                  Total O  = 5.550622e+04

----------------------------Distribution of species----------------------------

                                               Log       Log       Log    mole V
   Species          Molality    Activity  Molality  Activity     Gamma   cm³/mol

   H+              2.704e-07   2.010e-07    -6.568    -6.697    -0.129      0.00
   OH-             8.402e-08   4.866e-08    -7.076    -7.313    -0.237     -2.10
   H2O             5.551e+01   9.660e-01     1.744    -0.015     0.000     18.07
Cl            1.000e+00
   Cl-             1.000e+00   6.087e-01     0.000    -0.216    -0.216     18.94
H(0)          0.000e+00
   H2              0.000e+00   0.000e+00   -42.692   -42.592     0.100     28.61
Na            1.000e+00
   Na+             1.000e+00   7.313e-01     0.000    -0.136    -0.136     -0.31
   NaOH            2.826e-18   3.558e-18   -17.549   -17.449     0.100     (0)  
O(0)          9.427e-08
   O2              4.714e-08   5.934e-08    -7.327    -7.227     0.100     30.40

------------------------------Saturation indices-------------------------------

  Phase               SI** log IAP   log K(298 K,   1 atm)

  H2(g)           -39.49    -42.59   -3.10  H2
  H2O(g)           -1.52     -0.02    1.50  H2O
  Halite           -1.92     -0.35    1.57  NaCl
  O2(g)            -4.33     -7.23   -2.89  O2

**For a gas, SI = log10(fugacity). Fugacity = pressure * phi / 1 atm.
  For ideal gases, phi = 1.

Transport step   6. Multicomponent diffusion run   1.

Using mix 1.	
Using reaction 1.	

Mixture 1.	

	  0.000e+00 Solution 0	Solution after simulation 4.                           
	  1.000e+00 Solution 1	Solution after simulation 4.                           
	  0.000e+00 Solution 2	Solution after simulation 4.                           

Reaction 1.	

	  2.000e+02 moles of the following reaction have been added:

	                 Relative
	Reactant            moles

	NaCl                 1.00000

	                 Relative
	Element             moles
	Cl                   1.00000
	Na                   1.00000

-----------------------------Solution composition------------------------------

	Elements           Molality       Moles

	Cl                1.200e+00   1.200e+03
	Na                1.200e+00   1.200e+03

----------------------------Description of solution----------------------------

                                       pH  =   6.950      Charge balance
                                       pe  =  -1.631      Adjusted to redox equilibrium
      Specific Conductance (µS/cm,  25°C)  = 95945
                          Density (g/cm³)  =   1.04347
                               Volume (L)  = 1025.55523
                        Activity of water  =   0.959
                 Ionic strength (mol/kgw)  =   1.200e+00
                       Mass of water (kg)  =   1.000e+03
                 Total alkalinity (eq/kg)  =   1.250e-09
                    Total carbon (mol/kg)  =   0.000e+00
                       Total CO2 (mol/kg)  =   0.000e+00
                         Temperature (°C)  =  25.00
                  Electrical balance (eq)  =  -1.250e-06
 Percent error, 100*(Cat-|An|)/(Cat+|An|)  =  -0.00
                               Iterations  =   4
                                  Total H  = 1.110124e+05
                                  Total O  = 5.550622e+04

----------------------------Distribution of species----------------------------

                                               Log       Log       Log    mole V
   Species          Molality    Activity  Molality  Activity     Gamma   cm³/mol

   OH-             1.531e-07   8.662e-08    -6.815    -7.062    -0.247     -1.80
   H+              1.518e-07   1.121e-07    -6.819    -6.950    -0.132      0.00
   H2O             5.551e+01   9.592e-01     1.744    -0.018     0.000     18.07
Cl            1.200e+00
   Cl-             1.200e+00   7.200e-01     0.079    -0.143    -0.222     19.03
H(0)          2.461e-14
   H2              1.231e-14   1.622e-14   -13.910   -13.790     0.120     28.61
Na            1.200e+00
   Na+             1.200e+00   8.938e-01     0.079    -0.049    -0.128     -0.20
   NaOH            5.873e-18   7.743e-18   -17.231   -17.111     0.120     (0)  
O(0)          0.000e+00
   O2              0.000e+00   0.000e+00   -64.956   -64.836     0.120     30.40

------------------------------Saturation indices-------------------------------

  Phase               SI** log IAP   log K(298 K,   1 atm)

  H2(g)           -10.69    -13.79   -3.10  H2
  H2O(g)           -1.52     -0.02    1.50  H2O
  Halite           -1.76     -0.19    1.57  NaCl
  O2(g)           -61.94    -64.84   -2.89  O2

**For a gas, SI = log10(fugacity). Fugacity = pressure * phi / 1 atm.
  For ideal gases, phi = 1.

Using solution 2.	Solution after simulation 4.
Using reaction 2.	

Reaction 2.	

	  2.000e+02 moles of the following reaction have been added:

	                 Relative
	Reactant            moles

	NaCl                 1.00000

	                 Relative
	Element             moles
	Cl                   1.00000
	Na                   1.00000

-----------------------------Solution composition------------------------------

	Elements           Molality       Moles

	Cl                1.200e+00   1.200e+03
	Na                1.200e+00   1.200e+03

----------------------------Description of solution----------------------------

                                       pH  =   6.600      Charge balance
                                       pe  =  13.168      Adjusted to redox equilibrium
      Specific Conductance (µS/cm,  25°C)  = 95945
                          Density (g/cm³)  =   1.04347
                               Volume (L)  = 1025.55523
                        Activity of water  =   0.959
                 Ionic strength (mol/kgw)  =   1.200e+00
                       Mass of water (kg)  =   1.000e+03
                 Total alkalinity (eq/kg)  =  -2.722e-07
                    Total carbon (mol/kg)  =   0.000e+00
                       Total CO2 (mol/kg)  =   0.000e+00
                         Temperature (°C)  =  25.00
                  Electrical balance (eq)  =  -1.251e-06
 Percent error, 100*(Cat-|An|)/(Cat+|An|)  =  -0.00
                               Iterations  =   4
                                  Total H  = 1.110124e+05
                                  Total O  = 5.550622e+04

----------------------------Distribution of species----------------------------

                                               Log       Log       Log    mole V
   Species          Molality    Activity  Molality  Activity     Gamma   cm³/mol

   H+              3.405e-07   2.514e-07    -6.468    -6.600    -0.132      0.00
   OH-             6.825e-08   3.862e-08    -7.166    -7.413    -0.247     -1.80
   H2O             5.551e+01   9.592e-01     1.744    -0.018     0.000     18.07
Cl            1.200e+00
   Cl-             1.200e+00   7.200e-01     0.079    -0.143    -0.222     19.03
H(0)          0.000e+00
   H2              0.000e+00   0.000e+00   -42.806   -42.686     0.120     28.61
Na            1.200e+00
   Na+             1.200e+00   8.938e-01     0.079    -0.049    -0.128     -0.20
   NaOH            2.619e-18   3.452e-18   -17.582   -17.462     0.120     (0)  
O(0)          1.372e-07
   O2              6.860e-08   9.044e-08    -7.164    -7.044     0.120     30.40

------------------------------Saturation indices-------------------------------

  Phase               SI** log IAP   log K(298 K,   1 atm)

  H2(g)           -39.59    -42.69   -3.10  H2
  H2O(g)           -1.52     -0.02    1.50  H2O
  Halite           -1.76     -0.19    1.57  NaCl
  O2(g)            -4.15     -7.04   -2.89  O2

**For a gas, SI = log10(fugacity). Fugacity = pressure * phi / 1 atm.
  For ideal gases, phi = 1.

Transport step   7. Multicomponent diffusion run   1.

Using mix 1.	
Using reaction 1.	

Mixture 1.	

	  0.000e+00 Solution 0	Solution after simulation 4.                           
	  1.000e+00 Solution 1	Solution after simulation 4.                           
	  0.000e+00 Solution 2	Solution after simulation 4.                           

Reaction 1.	

	  2.000e+02 moles of the following reaction have been added:

	                 Relative
	Reactant            moles

	NaCl                 1.00000

	                 Relative
	Element             moles
	Cl                   1.00000
	Na                   1.00000

-----------------------------Solution composition------------------------------

	Elements           Molality       Moles

	Cl                1.400e+00   1.400e+03
	Na                1.400e+00   1.400e+03

----------------------------Description of solution----------------------------

                                       pH  =   6.949      Charge balance
                                       pe  =  -1.722      Adjusted to redox equilibrium
      Specific Conductance (µS/cm,  25°C)  = 108270
                          Density (g/cm³)  =   1.05077
                               Volume (L)  = 1029.55648
                        Activity of water  =   0.952
                 Ionic strength (mol/kgw)  =   1.400e+00
                       Mass of water (kg)  =   1.000e+03
                 Total alkalinity (eq/kg)  =   1.250e-09
                    Total carbon (mol/kg)  =   0.000e+00
                       Total CO2 (mol/kg)  =   0.000e+00
                         Temperature (°C)  =  25.00
                  Electrical balance (eq)  =  -1.250e-06
 Percent error, 100*(Cat-|An|)/(Cat+|An|)  =  -0.00
                               Iterations  =   4
                                  Total H  = 1.110124e+05
                                  Total O  = 5.550622e+04

----------------------------Distribution of species----------------------------

                                               Log       Log       Log    mole V
   Species          Molality    Activity  Molality  Activity     Gamma   cm³/mol

   OH-             1.544e-07   8.571e-08    -6.811    -7.067    -0.256     -1.50
   H+              1.532e-07   1.125e-07    -6.815    -6.949    -0.134      0.00
   H2O             5.551e+01   9.524e-01     1.744    -0.021     0.000     18.07
Cl            1.400e+00
   Cl-             1.400e+00   8.311e-01     0.146    -0.080    -0.227     19.10
H(0)          3.609e-14
   H2              1.804e-14   2.491e-14   -13.744   -13.604     0.140     28.61
Na            1.400e+00
   Na+             1.400e+00   1.066e+00     0.146     0.028    -0.119     -0.11
   NaOH            6.616e-18   9.133e-18   -17.179   -17.039     0.140     (0)  
O(0)          0.000e+00
   O2              0.000e+00   0.000e+00   -65.355   -65.215     0.140     30.40

------------------------------Saturation indices-------------------------------

  Phase               SI** log IAP   log K(298 K,   1 atm)

  H2(g)           -10.50    -13.60   -3.10  H2
  H2O(g)           -1.52     -0.02    1.50  H2O
  Halite           -1.62     -0.05    1.57  NaCl
  O2(g)           -62.32    -65.22   -2.89  O2

**For a gas, SI = log10(fugacity). Fugacity = pressure * phi / 1 atm.
  For ideal gases, phi = 1.

Using solution 2.	Solution after simulation 4.
Using reaction 2.	

Reaction 2.	

	  2.000e+02 moles of the following reaction have been added:

	                 Relative
	Reactant            moles

	NaCl                 1.00000

	                 Relative
	Element             moles
	Cl                   1.00000
	Na                   1.00000

-----------------------------Solution composition------------------------------

	Elements           Molality       Moles

	Cl                1.400e+00   1.400e+03
	Na                1.400e+00   1.400e+03

----------------------------Description of solution----------------------------

                                       pH  =   6.504      Charge balance
                                       pe  =  13.305      Adjusted to redox equilibrium
      Specific Conductance (µS/cm,  25°C)  = 108270
                          Density (g/cm³)  =   1.05077
                               Volume (L)  = 1029.55648
                        Activity of water  =   0.952
                 Ionic strength (mol/kgw)  =   1.400e+00
                       Mass of water (kg)  =   1.000e+03
                 Total alkalinity (eq/kg)  =  -3.717e-07
                    Total carbon (mol/kg)  =   0.000e+00
                       Total CO2 (mol/kg)  =   0.000e+00
                         Temperature (°C)  =  25.00
                  Electrical balance (eq)  =  -1.251e-06
 Percent error, 100*(Cat-|An|)/(Cat+|An|)  =  -0.00
                               Iterations  =   4
                                  Total H  = 1.110124e+05
                                  Total O  = 5.550622e+04

----------------------------Distribution of species----------------------------

                                               Log       Log       Log    mole V
   Species          Molality    Activity  Molality  Activity     Gamma   cm³/mol

   H+              4.271e-07   3.136e-07    -6.370    -6.504    -0.134      0.00
   OH-             5.539e-08   3.074e-08    -7.257    -7.512    -0.256     -1.50
   H2O             5.551e+01   9.524e-01     1.744    -0.021     0.000     18.07
Cl            1.400e+00
   Cl-             1.400e+00   8.311e-01     0.146    -0.080    -0.227     19.10
H(0)          0.000e+00
   H2              0.000e+00   0.000e+00   -42.907   -42.767     0.140     28.61
Na            1.400e+00
   Na+             1.400e+00   1.066e+00     0.146     0.028    -0.119     -0.11
   NaOH            2.373e-18   3.276e-18   -17.625   -17.485     0.140     (0)  
O(0)          1.869e-07
   O2              9.346e-08   1.290e-07    -7.029    -6.889     0.140     30.40

------------------------------Saturation indices-------------------------------

  Phase               SI** log IAP   log K(298 K,   1 atm)

  H2(g)           -39.67    -42.77   -3.10  H2
  H2O(g)           -1.52     -0.02    1.50  H2O
  Halite           -1.62     -0.05    1.57  NaCl
  O2(g)            -4.00     -6.89   -2.89  O2

**For a gas, SI = log10(fugacity). Fugacity = pressure * phi / 1 atm.
  For ideal gases, phi = 1.

Transport step   8. Multicomponent diffusion run   1.

Using mix 1.	
Using reaction 1.	

Mixture 1.	

	  0.000e+00 Solution 0	Solution after simulation 4.                           
	  1.000e+00 Solution 1	Solution after simulation 4.                           
	  0.000e+00 Solution 2	Solution after simulation 4.                           

Reaction 1.	

	  2.000e+02 moles of the following reaction have been added:

	                 Relative
	Reactant            moles

	NaCl                 1.00000

	                 Relative
	Element             moles
	Cl                   1.00000
	Na                   1.00000

-----------------------------Solution composition------------------------------

	Elements           Molality       Moles

	Cl                1.600e+00   1.600e+03
	Na                1.600e+00   1.600e+03

----------------------------Description of solution----------------------------

                                       pH  =   6.948      Charge balance
                                       pe  =  -1.663      Adjusted to redox equilibrium
      Specific Conductance (µS/cm,  25°C)  = 119909
                          Density (g/cm³)  =   1.05796
                               Volume (L)  = 1033.60515
                        Activity of water  =   0.946
                 Ionic strength (mol/kgw)  =   1.600e+00
                       Mass of water (kg)  =   1.000e+03
                 Total alkalinity (eq/kg)  =   1.250e-09
                    Total carbon (mol/kg)  =   0.000e+00
                       Total CO2 (mol/kg)  =   0.000e+00
                         Temperature (°C)  =  25.00
                  Electrical balance (eq)  =  -1.250e-06
 Percent error, 100*(Cat-|An|)/(Cat+|An|)  =  -0.00
                               Iterations  =   4
                                  Total H  = 1.110124e+05
                                  Total O  = 5.550622e+04

----------------------------Distribution of species----------------------------

                                               Log       Log       Log    mole V
   Species          Molality    Activity  Molality  Activity     Gamma   cm³/mol

   OH-             1.555e-07   8.489e-08    -6.808    -7.071    -0.263     -1.20
   H+              1.542e-07   1.127e-07    -6.812    -6.948    -0.136      0.00
   H2O             5.551e+01   9.456e-01     1.744    -0.024     0.000     18.07
Cl            1.600e+00
   Cl-             1.600e+00   9.422e-01     0.204    -0.026    -0.230     19.17
H(0)          2.638e-14
   H2              1.319e-14   1.906e-14   -13.880   -13.720     0.160     28.61
Na            1.600e+00
   Na+             1.600e+00   1.247e+00     0.204     0.096    -0.108     -0.02
   NaOH            7.326e-18   1.059e-17   -17.135   -16.975     0.160     (0)  
O(0)          0.000e+00
   O2              0.000e+00   0.000e+00   -65.149   -64.989     0.160     30.40

------------------------------Saturation indices-------------------------------

  Phase               SI** log IAP   log K(298 K,   1 atm)

  H2(g)           -10.62    -13.72   -3.10  H2
  H2O(g)           -1.53     -0.02    1.50  H2O
  Halite           -1.50      0.07    1.57  NaCl
  O2(g)           -62.10    -64.99   -2.89  O2

**For a gas, SI = log10(fugacity). Fugacity = pressure * phi / 1 atm.
  For ideal gases, phi = 1.

Using solution 2.	Solution after simulation 4.
Using reaction 2.	

Reaction 2.	

	  2.000e+02 moles of the following reaction have been added:

	                 Relative
	Reactant            moles

	NaCl                 1.00000

	                 Relative
	Element             moles
	Cl                   1.00000
	Na                   1.00000

-----------------------------Solution composition------------------------------

	Elements           Molality       Moles

	Cl                1.600e+00   1.600e+03
	Na                1.600e+00   1.600e+03

----------------------------Description of solution----------------------------

                                       pH  =   6.412      Charge balance
                                       pe  =  13.431      Adjusted to redox equilibrium
      Specific Conductance (µS/cm,  25°C)  = 119909
                          Density (g/cm³)  =   1.05796
                               Volume (L)  = 1033.60516
                        Activity of water  =   0.946
                 Ionic strength (mol/kgw)  =   1.600e+00
                       Mass of water (kg)  =   1.000e+03
                 Total alkalinity (eq/kg)  =  -4.839e-07
                    Total carbon (mol/kg)  =   0.000e+00
                       Total CO2 (mol/kg)  =   0.000e+00
                         Temperature (°C)  =  25.00
                  Electrical balance (eq)  =  -1.251e-06
 Percent error, 100*(Cat-|An|)/(Cat+|An|)  =  -0.00
                               Iterations  =   4
                                  Total H  = 1.110124e+05
                                  Total O  = 5.550622e+04

----------------------------Distribution of species----------------------------

                                               Log       Log       Log    mole V
   Species          Molality    Activity  Molality  Activity     Gamma   cm³/mol

   H+              5.292e-07   3.868e-07    -6.276    -6.412    -0.136      0.00
   OH-             4.532e-08   2.474e-08    -7.344    -7.607    -0.263     -1.20
   H2O             5.551e+01   9.456e-01     1.744    -0.024     0.000     18.07
Cl            1.600e+00
   Cl-             1.600e+00   9.422e-01     0.204    -0.026    -0.230     19.17
H(0)          0.000e+00
   H2              0.000e+00   0.000e+00   -42.997   -42.837     0.160     28.61
Na            1.600e+00
   Na+             1.600e+00   1.247e+00     0.204     0.096    -0.108     -0.02
   NaOH            2.135e-18   3.086e-18   -17.671   -17.511     0.160     (0)  
O(0)          2.430e-07
   O2              1.215e-07   1.756e-07    -6.915    -6.755     0.160     30.40

------------------------------Saturation indices-------------------------------

  Phase               SI** log IAP   log K(298 K,   1 atm)

  H2(g)           -39.74    -42.84   -3.10  H2
  H2O(g)           -1.53     -0.02    1.50  H2O
  Halite           -1.50      0.07    1.57  NaCl
  O2(g)            -3.86     -6.76   -2.89  O2

**For a gas, SI = log10(fugacity). Fugacity = pressure * phi / 1 atm.
  For ideal gases, phi = 1.

Transport step   9. Multicomponent diffusion run   1.

Using mix 1.	
Using reaction 1.	

Mixture 1.	

	  0.000e+00 Solution 0	Solution after simulation 4.                           
	  1.000e+00 Solution 1	Solution after simulation 4.                           
	  0.000e+00 Solution 2	Solution after simulation 4.                           

Reaction 1.	

	  2.000e+02 moles of the following reaction have been added:

	                 Relative
	Reactant            moles

	NaCl                 1.00000

	                 Relative
	Element             moles
	Cl                   1.00000
	Na                   1.00000

-----------------------------Solution composition------------------------------

	Elements           Molality       Moles

	Cl                1.800e+00   1.800e+03
	Na                1.800e+00   1.800e+03

----------------------------Description of solution----------------------------

                                       pH  =   6.947      Charge balance
                                       pe  =  -1.754      Adjusted to redox equilibrium
      Specific Conductance (µS/cm,  25°C)  = 130924
                          Density (g/cm³)  =   1.06505
                               Volume (L)  = 1037.69796
                        Activity of water  =   0.939
                 Ionic strength (mol/kgw)  =   1.800e+00
                       Mass of water (kg)  =   1.000e+03
                 Total alkalinity (eq/kg)  =   1.250e-09
                    Total carbon (mol/kg)  =   0.000e+00
                       Total CO2 (mol/kg)  =   0.000e+00
                         Temperature (°C)  =  25.00
                  Electrical balance (eq)  =  -1.250e-06
 Percent error, 100*(Cat-|An|)/(Cat+|An|)  =  -0.00
                               Iterations  =   4
                                  Total H  = 1.110124e+05
                                  Total O  = 5.550622e+04

----------------------------Distribution of species----------------------------

                                               Log       Log       Log    mole V
   Species          Molality    Activity  Molality  Activity     Gamma   cm³/mol

   OH-             1.564e-07   8.413e-08    -6.806    -7.075    -0.269     -0.91
   H+              1.551e-07   1.129e-07    -6.809    -6.947    -0.138      0.00
   H2O             5.551e+01   9.388e-01     1.744    -0.027     0.000     18.07
Cl            1.800e+00
   Cl-             1.800e+00   1.054e+00     0.255     0.023    -0.233     19.23
H(0)          3.849e-14
   H2              1.924e-14   2.913e-14   -13.716   -13.536     0.180     28.61
Na            1.800e+00
   Na+             1.800e+00   1.440e+00     0.255     0.158    -0.097      0.06
   NaOH            8.004e-18   1.212e-17   -17.097   -16.917     0.180     (0)  
O(0)          0.000e+00
   O2              0.000e+00   0.000e+00   -65.543   -65.363     0.180     30.40

------------------------------Saturation indices-------------------------------

  Phase               SI** log IAP   log K(298 K,   1 atm)

  H2(g)           -10.43    -13.54   -3.10  H2
  H2O(g)           -1.53     -0.03    1.50  H2O
  Halite           -1.39      0.18    1.57  NaCl
  O2(g)           -62.47    -65.36   -2.89  O2

**For a gas, SI = log10(fugacity). Fugacity = pressure * phi / 1 atm.
  For ideal gases, phi = 1.

Using solution 2.	Solution after simulation 4.
Using reaction 2.	

Reaction 2.	

	  2.000e+02 moles of the following reaction have been added:

	                 Relative
	Reactant            moles

	NaCl                 1.00000

	                 Relative
	Element             moles
	Cl                   1.00000
	Na                   1.00000

-----------------------------Solution composition------------------------------

	Elements           Molality       Moles

	Cl                1.800e+00   1.800e+03
	Na                1.800e+00   1.800e+03

----------------------------Description of solution----------------------------

                                       pH  =   6.328      Charge balance
                                       pe  =  13.547      Adjusted to redox equilibrium
      Specific Conductance (µS/cm,  25°C)  = 130924
                          Density (g/cm³)  =   1.06505
                               Volume (L)  = 1037.69797
                        Activity of water  =   0.939
                 Ionic strength (mol/kgw)  =   1.800e+00
                       Mass of water (kg)  =   1.000e+03
                 Total alkalinity (eq/kg)  =  -6.082e-07
                    Total carbon (mol/kg)  =   0.000e+00
                       Total CO2 (mol/kg)  =   0.000e+00
                         Temperature (°C)  =  25.00
                  Electrical balance (eq)  =  -1.251e-06
 Percent error, 100*(Cat-|An|)/(Cat+|An|)  =  -0.00
                               Iterations  =   4
                                  Total H  = 1.110124e+05
                                  Total O  = 5.550622e+04

----------------------------Distribution of species----------------------------

                                               Log       Log       Log    mole V
   Species          Molality    Activity  Molality  Activity     Gamma   cm³/mol

   H+              6.457e-07   4.702e-07    -6.190    -6.328    -0.138      0.00
   OH-             3.756e-08   2.021e-08    -7.425    -7.694    -0.269     -0.91
   H2O             5.551e+01   9.388e-01     1.744    -0.027     0.000     18.07
Cl            1.800e+00
   Cl-             1.800e+00   1.054e+00     0.255     0.023    -0.233     19.23
H(0)          0.000e+00
   H2              0.000e+00   0.000e+00   -43.079   -42.899     0.180     28.61
Na            1.800e+00
   Na+             1.800e+00   1.440e+00     0.255     0.158    -0.097      0.06
   NaOH            1.923e-18   2.910e-18   -17.716   -17.536     0.180     (0)  
O(0)          3.052e-07
   O2              1.526e-07   2.309e-07    -6.817    -6.636     0.180     30.40

------------------------------Saturation indices-------------------------------

  Phase               SI** log IAP   log K(298 K,   1 atm)

  H2(g)           -39.80    -42.90   -3.10  H2
  H2O(g)           -1.53     -0.03    1.50  H2O
  Halite           -1.39      0.18    1.57  NaCl
  O2(g)            -3.74     -6.64   -2.89  O2

**For a gas, SI = log10(fugacity). Fugacity = pressure * phi / 1 atm.
  For ideal gases, phi = 1.

Transport step  10. Multicomponent diffusion run   1.

Using mix 1.	
Using reaction 1.	

Mixture 1.	

	  0.000e+00 Solution 0	Solution after simulation 4.                           
	  1.000e+00 Solution 1	Solution after simulation 4.                           
	  0.000e+00 Solution 2	Solution after simulation 4.                           

Reaction 1.	

	  2.000e+02 moles of the following reaction have been added:

	                 Relative
	Reactant            moles

	NaCl                 1.00000

	                 Relative
	Element             moles
	Cl                   1.00000
	Na                   1.00000

-----------------------------Solution composition------------------------------

	Elements           Molality       Moles

	Cl                2.000e+00   2.000e+03
	Na                2.000e+00   2.000e+03

----------------------------Description of solution----------------------------

                                       pH  =   6.947      Charge balance
                                       pe  =  -1.852      Adjusted to redox equilibrium
      Specific Conductance (µS/cm,  25°C)  = 141367
                          Density (g/cm³)  =   1.07205
                               Volume (L)  = 1041.83219
                        Activity of water  =   0.932
                 Ionic strength (mol/kgw)  =   2.000e+00
                       Mass of water (kg)  =   1.000e+03
                 Total alkalinity (eq/kg)  =   1.250e-09
                    Total carbon (mol/kg)  =   0.000e+00
                       Total CO2 (mol/kg)  =   0.000e+00
                         Temperature (°C)  =  25.00
                  Electrical balance (eq)  =  -1.238e-06
 Percent error, 100*(Cat-|An|)/(Cat+|An|)  =  -0.00
                               Iterations  =   3
                                  Total H  = 1.110124e+05
                                  Total O  = 5.550622e+04

----------------------------Distribution of species----------------------------

                                               Log       Log       Log    mole V
   Species          Molality    Activity  Molality  Activity     Gamma   cm³/mol

   OH-             1.570e-07   8.343e-08    -6.804    -7.079    -0.275     -0.62
   H+              1.558e-07   1.131e-07    -6.807    -6.947    -0.139      0.00
   H2O             5.551e+01   9.320e-01     1.744    -0.031     0.000     18.07
Cl            2.000e+00
   Cl-             2.000e+00   1.166e+00     0.301     0.067    -0.235     19.29
H(0)          5.772e-14
   H2              2.886e-14   4.574e-14   -13.540   -13.340     0.200     28.61
Na            2.000e+00
   Na+             2.000e+00   1.644e+00     0.301     0.216    -0.085      0.14
   NaOH            8.655e-18   1.372e-17   -17.063   -16.863     0.200     (0)  
O(0)          0.000e+00
   O2              0.000e+00   0.000e+00   -65.962   -65.762     0.200     30.40

------------------------------Saturation indices-------------------------------

  Phase               SI** log IAP   log K(298 K,   1 atm)

  H2(g)           -10.24    -13.34   -3.10  H2
  H2O(g)           -1.53     -0.03    1.50  H2O
  Halite           -1.29      0.28    1.57  NaCl
  O2(g)           -62.87    -65.76   -2.89  O2

**For a gas, SI = log10(fugacity). Fugacity = pressure * phi / 1 atm.
  For ideal gases, phi = 1.

Using solution 2.	Solution after simulation 4.
Using reaction 2.	

Reaction 2.	

	  2.000e+02 moles of the following reaction have been added:

	                 Relative
	Reactant            moles

	NaCl                 1.00000

	                 Relative
	Element             moles
	Cl                   1.00000
	Na                   1.00000

-----------------------------Solution composition------------------------------

	Elements           Molality       Moles

	Cl                2.000e+00   2.000e+03
	Na                2.000e+00   2.000e+03

----------------------------Description of solution----------------------------

                                       pH  =   6.250      Charge balance
                                       pe  =  13.653      Adjusted to redox equilibrium
      Specific Conductance (µS/cm,  25°C)  = 141367
                          Density (g/cm³)  =   1.07205
                               Volume (L)  = 1041.83220
                        Activity of water  =   0.932
                 Ionic strength (mol/kgw)  =   2.000e+00
                       Mass of water (kg)  =   1.000e+03
                 Total alkalinity (eq/kg)  =  -7.438e-07
                    Total carbon (mol/kg)  =   0.000e+00
                       Total CO2 (mol/kg)  =   0.000e+00
                         Temperature (°C)  =  25.00
                  Electrical balance (eq)  =  -1.240e-06
 Percent error, 100*(Cat-|An|)/(Cat+|An|)  =  -0.00
                               Iterations  =   3
                                  Total H  = 1.110124e+05
                                  Total O  = 5.550622e+04

----------------------------Distribution of species----------------------------

                                               Log       Log       Log    mole V
   Species          Molality    Activity  Molality  Activity     Gamma   cm³/mol

   H+              7.754e-07   5.627e-07    -6.110    -6.250    -0.139      0.00
   OH-             3.155e-08   1.676e-08    -7.501    -7.776    -0.275     -0.62
   H2O             5.551e+01   9.320e-01     1.744    -0.031     0.000     18.07
Cl            2.000e+00
   Cl-             2.000e+00   1.166e+00     0.301     0.067    -0.235     19.29
H(0)          0.000e+00
   H2              0.000e+00   0.000e+00   -43.156   -42.956     0.200     28.61
Na            2.000e+00
   Na+             2.000e+00   1.644e+00     0.301     0.216    -0.085      0.14
   NaOH            1.739e-18   2.756e-18   -17.760   -17.560     0.200     (0)  
O(0)          3.730e-07
   O2              1.865e-07   2.956e-07    -6.729    -6.529     0.200     30.40

------------------------------Saturation indices-------------------------------

  Phase               SI** log IAP   log K(298 K,   1 atm)

  H2(g)           -39.85    -42.96   -3.10  H2
  H2O(g)           -1.53     -0.03    1.50  H2O
  Halite           -1.29      0.28    1.57  NaCl
  O2(g)            -3.64     -6.53   -2.89  O2

**For a gas, SI = log10(fugacity). Fugacity = pressure * phi / 1 atm.
  For ideal gases, phi = 1.

Transport step  11. Multicomponent diffusion run   1.

Using mix 1.	
Using reaction 1.	

Mixture 1.	

	  0.000e+00 Solution 0	Solution after simulation 4.                           
	  1.000e+00 Solution 1	Solution after simulation 4.                           
	  0.000e+00 Solution 2	Solution after simulation 4.                           

Reaction 1.	

	  2.000e+02 moles of the following reaction have been added:

	                 Relative
	Reactant            moles

	NaCl                 1.00000

	                 Relative
	Element             moles
	Cl                   1.00000
	Na                   1.00000

-----------------------------Solution composition------------------------------

	Elements           Molality       Moles

	Cl                2.200e+00   2.200e+03
	Na                2.200e+00   2.200e+03

----------------------------Description of solution----------------------------

                                       pH  =   6.946      Charge balance
                                       pe  =  -1.782      Adjusted to redox equilibrium
      Specific Conductance (µS/cm,  25°C)  = 151281
                          Density (g/cm³)  =   1.07894
                               Volume (L)  = 1046.00556
                        Activity of water  =   0.925
                 Ionic strength (mol/kgw)  =   2.200e+00
                       Mass of water (kg)  =   1.000e+03
                 Total alkalinity (eq/kg)  =   1.250e-09
                    Total carbon (mol/kg)  =   0.000e+00
                       Total CO2 (mol/kg)  =   0.000e+00
                         Temperature (°C)  =  25.00
                  Electrical balance (eq)  =  -1.233e-06
 Percent error, 100*(Cat-|An|)/(Cat+|An|)  =  -0.00
                               Iterations  =   3
                                  Total H  = 1.110124e+05
                                  Total O  = 5.550622e+04

----------------------------Distribution of species----------------------------

                                               Log       Log       Log    mole V
   Species          Molality    Activity  Molality  Activity     Gamma   cm³/mol

   OH-             1.576e-07   8.277e-08    -6.802    -7.082    -0.280     -0.34
   H+              1.563e-07   1.131e-07    -6.806    -6.946    -0.140      0.00
   H2O             5.551e+01   9.252e-01     1.744    -0.034     0.000     18.07
Cl            2.200e+00
   Cl-             2.200e+00   1.278e+00     0.342     0.107    -0.236     19.35
H(0)          4.002e-14
   H2              2.001e-14   3.321e-14   -13.699   -13.479     0.220     28.61
Na            2.200e+00
   Na+             2.200e+00   1.861e+00     0.342     0.270    -0.073      0.21
   NaOH            9.280e-18   1.540e-17   -17.032   -16.812     0.220     (0)  
O(0)          0.000e+00
   O2              0.000e+00   0.000e+00   -65.710   -65.490     0.220     30.40

------------------------------Saturation indices-------------------------------

  Phase               SI** log IAP   log K(298 K,   1 atm)

  H2(g)           -10.38    -13.48   -3.10  H2
  H2O(g)           -1.54     -0.03    1.50  H2O
  Halite           -1.19      0.38    1.57  NaCl
  O2(g)           -62.60    -65.49   -2.89  O2

**For a gas, SI = log10(fugacity). Fugacity = pressure * phi / 1 atm.
  For ideal gases, phi = 1.

Using solution 2.	Solution after simulation 4.
Using reaction 2.	

Reaction 2.	

	  2.000e+02 moles of the following reaction have been added:

	                 Relative
	Reactant            moles

	NaCl                 1.00000

	                 Relative
	Element             moles
	Cl                   1.00000
	Na                   1.00000

-----------------------------Solution composition------------------------------

	Elements           Molality       Moles

	Cl                2.200e+00   2.200e+03
	Na                2.200e+00   2.200e+03

----------------------------Description of solution----------------------------

                                       pH  =   6.178      Charge balance
                                       pe  =  13.751      Adjusted to redox equilibrium
      Specific Conductance (µS/cm,  25°C)  = 151281
                          Density (g/cm³)  =   1.07894
                               Volume (L)  = 1046.00557
                        Activity of water  =   0.925
                 Ionic strength (mol/kgw)  =   2.200e+00
                       Mass of water (kg)  =   1.000e+03
                 Total alkalinity (eq/kg)  =  -8.903e-07
                    Total carbon (mol/kg)  =   0.000e+00
                       Total CO2 (mol/kg)  =   0.000e+00
                         Temperature (°C)  =  25.00
                  Electrical balance (eq)  =  -1.234e-06
 Percent error, 100*(Cat-|An|)/(Cat+|An|)  =  -0.00
                               Iterations  =   3
                                  Total H  = 1.110124e+05
                                  Total O  = 5.550622e+04

----------------------------Distribution of species----------------------------

                                               Log       Log       Log    mole V
   Species          Molality    Activity  Molality  Activity     Gamma   cm³/mol

   H+              9.172e-07   6.637e-07    -6.038    -6.178    -0.140      0.00
   OH-             2.686e-08   1.411e-08    -7.571    -7.851    -0.280     -0.34
   H2O             5.551e+01   9.252e-01     1.744    -0.034     0.000     18.07
Cl            2.200e+00
   Cl-             2.200e+00   1.278e+00     0.342     0.107    -0.236     19.35
H(0)          0.000e+00
   H2              0.000e+00   0.000e+00   -43.228   -43.008     0.220     28.61
Na            2.200e+00
   Na+             2.200e+00   1.861e+00     0.342     0.270    -0.073      0.21
   NaOH            1.582e-18   2.625e-18   -17.801   -17.581     0.220     (0)  
O(0)          4.463e-07
   O2              2.231e-07   3.703e-07    -6.651    -6.431     0.220     30.40

------------------------------Saturation indices-------------------------------

  Phase               SI** log IAP   log K(298 K,   1 atm)

  H2(g)           -39.91    -43.01   -3.10  H2
  H2O(g)           -1.54     -0.03    1.50  H2O
  Halite           -1.19      0.38    1.57  NaCl
  O2(g)            -3.54     -6.43   -2.89  O2

**For a gas, SI = log10(fugacity). Fugacity = pressure * phi / 1 atm.
  For ideal gases, phi = 1.

------------------
End of simulation.
------------------

------------------------------------
Reading input data for simulation 5.
------------------------------------

-------------------------------
End of Run after 0.015 Seconds.
-------------------------------

