WARNING: Database file from DATABASE keyword is used; command line argument ignored.
   Input file: seaw_0_200C
  Output file: seaw_0_200C.out
Database file: ../database/phreeqc.dat

------------------
Reading data base.
------------------

	SOLUTION_MASTER_SPECIES
	SOLUTION_SPECIES
	PHASES
	EXCHANGE_MASTER_SPECIES
	EXCHANGE_SPECIES
	SURFACE_MASTER_SPECIES
	SURFACE_SPECIES
	RATES
	END
------------------------------------
Reading input data for simulation 1.
------------------------------------

	DATABASE ../database/phreeqc.dat
	SELECTED_OUTPUT 101
	    file                seaw_0_200C_101.sel
	USER_PUNCH 101
	    headings Mu SC Viscosity
	    start
	10 PUNCH STR_F$(MU, 20, 12)
	20 PUNCH STR_F$(SC, 20, 10)
	30 PUNCH STR_F$(VISCOS, 20, 10)
	    end
	SOLUTION 1
	 pH 8.22
	 Na 485
	 K 10.6
	         Mg 55.1
	  Ca 10.7
	 Cl 566
	 Alkalinity 2.4
	 S(6) 29.3
	REACTION_TEMPERATURE 1
	0 200 in 11
	USER_GRAPH 1
	-chart_title "Density and viscosity of seawater"
	-axis_titles "temperature / °C" "density / (kg/L)" "viscosity / (mPa s)"
	-headings rho viscosity
	-axis_scale x_axis 0 200
	-connect_simulations false
	10 plot_xy tc, rho
	20 plot_xy tc, viscos, y_axis = 2 
	END
-------------------------------------------
Beginning of initial solution calculations.
-------------------------------------------

Initial solution 1.	

-----------------------------Solution composition------------------------------

	Elements           Molality       Moles

	Alkalinity        2.400e-03   2.400e-03
	Ca                1.070e-02   1.070e-02
	Cl                5.660e-01   5.660e-01
	K                 1.060e-02   1.060e-02
	Mg                5.510e-02   5.510e-02
	Na                4.850e-01   4.850e-01
	S(6)              2.930e-02   2.930e-02

----------------------------Description of solution----------------------------

                                       pH  =   8.220    
                                       pe  =   4.000    
      Specific Conductance (ÂµS/cm,  25Â°C)  = 52738
                          Density (g/cmÂ³)  =   1.02327
                               Volume (L)  =   1.01279
                        Viscosity (mPa s)  =   0.95701
                        Activity of water  =   0.981
                 Ionic strength (mol/kgw)  =   6.742e-01
                       Mass of water (kg)  =   1.000e+00
                    Total carbon (mol/kg)  =   2.237e-03
                       Total CO2 (mol/kg)  =   2.237e-03
                         Temperature (Â°C)  =  25.00
                  Electrical balance (eq)  =   2.000e-04
 Percent error, 100*(Cat-|An|)/(Cat+|An|)  =   0.02
                               Iterations  =   8
                                  Total H  = 1.110145e+02
                                  Total O  = 5.563013e+01

----------------------------Distribution of species----------------------------

                                               Log       Log       Log    mole V
   Species          Molality    Activity  Molality  Activity     Gamma   cmÂ³/mol

   OH-             2.705e-06   1.647e-06    -5.568    -5.783    -0.215     -2.63
   H+              7.983e-09   6.026e-09    -8.098    -8.220    -0.122      0.00
   H2O             5.551e+01   9.806e-01     1.744    -0.009     0.000     18.07
C(4)          2.237e-03
   HCO3-           1.570e-03   1.060e-03    -2.804    -2.975    -0.170     26.61
   MgHCO3+         2.740e-04   1.723e-04    -3.562    -3.764    -0.201      5.82
   NaHCO3          1.696e-04   2.424e-04    -3.771    -3.616     0.155     28.00
   MgCO3           9.365e-05   1.094e-04    -4.028    -3.961     0.067    -17.09
   CaHCO3+         4.761e-05   3.294e-05    -4.322    -4.482    -0.160      9.96
   CO3-2           3.967e-05   8.252e-06    -4.402    -5.083    -0.682     -0.40
   CaCO3           2.891e-05   3.376e-05    -4.539    -4.472     0.067    -14.60
   CO2             1.322e-05   1.465e-05    -4.879    -4.834     0.044     34.43
   (CO2)2          3.372e-12   3.938e-12   -11.472   -11.405     0.067     68.87
Ca            1.070e-02
   Ca+2            9.740e-03   2.435e-03    -2.011    -2.613    -0.602    -16.70
   CaSO4           8.832e-04   1.031e-03    -3.054    -2.987     0.067      7.50
   CaHCO3+         4.761e-05   3.294e-05    -4.322    -4.482    -0.160      9.96
   CaCO3           2.891e-05   3.376e-05    -4.539    -4.472     0.067    -14.60
   CaOH+           8.808e-08   6.578e-08    -7.055    -7.182    -0.127     (0)  
   CaHSO4+         5.471e-11   4.085e-11   -10.262   -10.389    -0.127     (0)  
Cl            5.660e-01
   Cl-             5.660e-01   3.570e-01    -0.247    -0.447    -0.200     18.79
   HCl             3.828e-10   7.411e-10    -9.417    -9.130     0.287     (0)  
H(0)          4.402e-28
   H2              2.201e-28   2.570e-28   -27.657   -27.590     0.067     28.61
K             1.060e-02
   K+              1.045e-02   6.515e-03    -1.981    -2.186    -0.205      9.66
   KSO4-           1.477e-04   5.703e-05    -3.831    -4.244    -0.413     32.21
Mg            5.510e-02
   Mg+2            4.813e-02   1.389e-02    -1.318    -1.857    -0.540    -20.41
   MgSO4           6.351e-03   8.663e-03    -2.197    -2.062     0.135     -0.83
   MgHCO3+         2.740e-04   1.723e-04    -3.562    -3.764    -0.201      5.82
   Mg(SO4)2-2      2.402e-04   6.795e-05    -3.619    -4.168    -0.548     48.54
   MgCO3           9.365e-05   1.094e-04    -4.028    -3.961     0.067    -17.09
   MgOH+           1.165e-05   8.208e-06    -4.934    -5.086    -0.152     (0)  
Na            4.850e-01
   Na+             4.765e-01   3.419e-01    -0.322    -0.466    -0.144     -0.50
   NaSO4-          8.344e-03   3.181e-03    -2.079    -2.497    -0.419     20.68
   NaHCO3          1.696e-04   2.424e-04    -3.771    -3.616     0.155     28.00
   NaOH            4.823e-17   5.632e-17   -16.317   -16.249     0.067     (0)  
O(0)          1.039e-37
   O2              5.195e-38   6.067e-38   -37.284   -37.217     0.067     30.40
S(6)          2.930e-02
   SO4-2           1.309e-02   2.382e-03    -1.883    -2.623    -0.740     17.77
   NaSO4-          8.344e-03   3.181e-03    -2.079    -2.497    -0.419     20.68
   MgSO4           6.351e-03   8.663e-03    -2.197    -2.062     0.135     -0.83
   CaSO4           8.832e-04   1.031e-03    -3.054    -2.987     0.067      7.50
   Mg(SO4)2-2      2.402e-04   6.795e-05    -3.619    -4.168    -0.548     48.54
   KSO4-           1.477e-04   5.703e-05    -3.831    -4.244    -0.413     32.21
   HSO4-           1.868e-09   1.395e-09    -8.729    -8.855    -0.127     40.96
   CaHSO4+         5.471e-11   4.085e-11   -10.262   -10.389    -0.127     (0)  

------------------------------Saturation indices-------------------------------

  Phase               SI** log IAP   log K(298 K,   1 atm)

  Anhydrite        -0.96     -5.24   -4.28  CaSO4
  Aragonite         0.64     -7.70   -8.34  CaCO3
  Arcanite         -5.12     -7.00   -1.88  K2SO4
  Calcite           0.78     -7.70   -8.48  CaCO3
  CO2(g)           -3.37     -4.83   -1.47  CO2
  Dolomite          2.45    -14.64  -17.08  CaMg(CO3)2
  Epsomite         -2.80     -4.54   -1.74  MgSO4:7H2O
  Gypsum           -0.67     -5.25   -4.58  CaSO4:2H2O
  H2(g)           -24.49    -27.59   -3.10  H2
  H2O(g)           -1.51     -0.01    1.50  H2O
  Halite           -2.48     -0.91    1.57  NaCl
  Hexahydrite      -2.96     -4.53   -1.57  MgSO4:6H2O
  Kieserite        -3.33     -4.49   -1.16  MgSO4:H2O
  Mirabilite       -2.40     -3.64   -1.24  Na2SO4:10H2O
  O2(g)           -34.32    -37.22   -2.89  O2
  Sylvite          -3.53     -2.63    0.90  KCl
  Thenardite       -3.25     -3.56   -0.30  Na2SO4

**For a gas, SI = log10(fugacity). Fugacity = pressure * phi / 1 atm.
  For ideal gases, phi = 1.

-----------------------------------------
Beginning of batch-reaction calculations.
-----------------------------------------

Reaction step 1.

Using solution 1.	
Using temperature 1.	

-----------------------------Solution composition------------------------------

	Elements           Molality       Moles

	C                 2.237e-03   2.237e-03
	Ca                1.070e-02   1.070e-02
	Cl                5.660e-01   5.660e-01
	K                 1.060e-02   1.060e-02
	Mg                5.510e-02   5.510e-02
	Na                4.850e-01   4.850e-01
	S                 2.930e-02   2.930e-02

----------------------------Description of solution----------------------------

                                       pH  =   8.594      Charge balance
                                       pe  =  11.656      Adjusted to redox equilibrium
      Specific Conductance (ÂµS/cm,   0Â°C)  = 27942
                          Density (g/cmÂ³)  =   1.02804
                               Volume (L)  =   1.00808
                        Viscosity (mPa s)  =   1.90533
                        Activity of water  =   0.981
                 Ionic strength (mol/kgw)  =   6.764e-01
                       Mass of water (kg)  =   1.000e+00
                 Total alkalinity (eq/kg)  =   2.400e-03
                       Total CO2 (mol/kg)  =   2.237e-03
                         Temperature (Â°C)  =   0.00
                  Electrical balance (eq)  =   2.000e-04
 Percent error, 100*(Cat-|An|)/(Cat+|An|)  =   0.02
                               Iterations  =  15
                                  Total H  = 1.110145e+02
                                  Total O  = 5.563013e+01

----------------------------Distribution of species----------------------------

                                               Log       Log       Log    mole V
   Species          Molality    Activity  Molality  Activity     Gamma   cmÂ³/mol

   OH-             7.171e-07   4.435e-07    -6.144    -6.353    -0.209     -4.84
   H+              3.348e-09   2.548e-09    -8.475    -8.594    -0.119      0.00
   H2O             5.551e+01   9.806e-01     1.744    -0.008     0.000     18.02
C(-4)         0.000e+00
   CH4             0.000e+00   0.000e+00  -139.047  -138.979     0.068     32.63
C(4)          2.237e-03
   HCO3-           1.654e-03   1.130e-03    -2.782    -2.947    -0.165     23.42
   MgHCO3+         3.098e-04   1.976e-04    -3.509    -3.704    -0.195      4.52
   MgCO3           9.015e-05   1.053e-04    -4.045    -3.977     0.068    -17.05
   NaHCO3          6.505e-05   9.308e-05    -4.187    -4.031     0.156     28.00
   CO3-2           4.783e-05   1.043e-05    -4.320    -4.982    -0.661     -5.64
   CaCO3           3.197e-05   3.736e-05    -4.495    -4.428     0.068    -14.71
   CaHCO3+         2.798e-05   1.958e-05    -4.553    -4.708    -0.155      8.36
   CO2             1.004e-05   1.113e-05    -4.998    -4.954     0.045     33.05
   (CO2)2          7.483e-13   8.745e-13   -12.126   -12.058     0.068     66.09
Ca            1.070e-02
   Ca+2            9.966e-03   2.622e-03    -2.001    -2.581    -0.580    -17.88
   CaSO4           6.741e-04   7.877e-04    -3.171    -3.104     0.068      6.05
   CaCO3           3.197e-05   3.736e-05    -4.495    -4.428     0.068    -14.71
   CaHCO3+         2.798e-05   1.958e-05    -4.553    -4.708    -0.155      8.36
   CaOH+           2.217e-07   1.674e-07    -6.654    -6.776    -0.122     (0)  
   CaHSO4+         1.323e-11   9.989e-12   -10.879   -11.000    -0.122     (0)  
Cl            5.660e-01
   Cl-             5.660e-01   3.625e-01    -0.247    -0.441    -0.194     17.11
   HCl             1.915e-10   3.716e-10    -9.718    -9.430     0.288     (0)  
H(0)          0.000e+00
   H2              0.000e+00   0.000e+00   -43.600   -43.532     0.068     28.65
K             1.060e-02
   K+              1.040e-02   6.584e-03    -1.983    -2.182    -0.199      8.49
   KSO4-           2.006e-04   8.021e-05    -3.698    -4.096    -0.398     29.44
Mg            5.510e-02
   Mg+2            5.131e-02   1.553e-02    -1.290    -1.809    -0.519    -19.67
   MgSO4           3.221e-03   4.398e-03    -2.492    -2.357     0.135     -7.59
   MgHCO3+         3.098e-04   1.976e-04    -3.509    -3.704    -0.195      4.52
   Mg(SO4)2-2      1.705e-04   5.020e-05    -3.768    -4.299    -0.531     42.68
   MgCO3           9.015e-05   1.053e-04    -4.045    -3.977     0.068    -17.05
   MgOH+           2.594e-06   1.847e-06    -5.586    -5.734    -0.148     (0)  
Na            4.850e-01
   Na+             4.709e-01   3.429e-01    -0.327    -0.465    -0.138     -2.25
   NaSO4-          1.402e-02   5.532e-03    -1.853    -2.257    -0.404     17.96
   NaHCO3          6.505e-05   9.308e-05    -4.187    -4.031     0.156     28.00
   NaOH            1.301e-17   1.521e-17   -16.886   -16.818     0.068     (0)  
O(0)          1.243e-14
   O2              6.215e-15   7.263e-15   -14.207   -14.139     0.068     27.49
S(-2)         0.000e+00
   HS-             0.000e+00   0.000e+00  -135.351  -135.560    -0.209     19.01
   H2S             0.000e+00   0.000e+00  -136.870  -136.802     0.068     26.92
   S-2             0.000e+00   0.000e+00  -140.004  -140.696    -0.692     (0)  
   (H2S)2          0.000e+00   0.000e+00  -275.279  -275.211     0.068     30.91
S(6)          2.930e-02
   NaSO4-          1.402e-02   5.532e-03    -1.853    -2.257    -0.404     17.96
   SO4-2           1.085e-02   2.074e-03    -1.965    -2.683    -0.719     10.39
   MgSO4           3.221e-03   4.398e-03    -2.492    -2.357     0.135     -7.59
   CaSO4           6.741e-04   7.877e-04    -3.171    -3.104     0.068      6.05
   KSO4-           2.006e-04   8.021e-05    -3.698    -4.096    -0.398     29.44
   Mg(SO4)2-2      1.705e-04   5.020e-05    -3.768    -4.299    -0.531     42.68
   HSO4-           4.196e-10   3.169e-10    -9.377    -9.499    -0.122     37.94
   CaHSO4+         1.323e-11   9.989e-12   -10.879   -11.000    -0.122     (0)  

------------------------------Saturation indices-------------------------------

  Phase               SI** log IAP   log K(273 K,   1 atm)

  Anhydrite        -1.23     -5.26   -4.03  CaSO4
  Aragonite         0.65     -7.56   -8.22  CaCO3
  Arcanite         -4.74     -7.05   -2.31  K2SO4
  Calcite           0.83     -7.56   -8.39  CaCO3
  CH4(g)         -136.50   -138.98   -2.47  CH4
  CO2(g)           -3.85     -4.95   -1.11  CO2
  Dolomite          2.46    -14.35  -16.82  CaMg(CO3)2
  Epsomite         -2.66     -4.55   -1.89  MgSO4:7H2O
  Gypsum           -0.65     -5.28   -4.63  CaSO4:2H2O
  H2(g)           -40.52    -43.53   -3.01  H2
  H2O(g)           -2.22     -0.01    2.21  H2O
  H2S(g)         -136.14   -144.15   -8.01  H2S
  Halite           -2.45     -0.91    1.55  NaCl
  Hexahydrite      -2.94     -4.54   -1.60  MgSO4:6H2O
  Kieserite        -3.00     -4.50   -1.50  MgSO4:H2O
  Mirabilite       -1.15     -3.70   -2.55  Na2SO4:10H2O
  O2(g)           -11.48    -14.14   -2.66  O2
  Sulfur         -101.82    -96.30    5.52  S
  Sylvite          -3.39     -2.62    0.76  KCl
  Thenardite       -3.43     -3.61   -0.18  Na2SO4

**For a gas, SI = log10(fugacity). Fugacity = pressure * phi / 1 atm.
  For ideal gases, phi = 1.

Reaction step 2.

Using solution 1.	
Using temperature 1.	

-----------------------------Solution composition------------------------------

	Elements           Molality       Moles

	C                 2.237e-03   2.237e-03
	Ca                1.070e-02   1.070e-02
	Cl                5.660e-01   5.660e-01
	K                 1.060e-02   1.060e-02
	Mg                5.510e-02   5.510e-02
	Na                4.850e-01   4.850e-01
	S                 2.930e-02   2.930e-02

----------------------------Description of solution----------------------------

                                       pH  =   8.287      Charge balance
                                       pe  =  10.125      Adjusted to redox equilibrium
      Specific Conductance (ÂµS/cm,  20Â°C)  = 47463
                          Density (g/cmÂ³)  =   1.02468
                               Volume (L)  =   1.01139
                        Viscosity (mPa s)  =   1.07491
                        Activity of water  =   0.981
                 Ionic strength (mol/kgw)  =   6.752e-01
                       Mass of water (kg)  =   1.000e+00
                 Total alkalinity (eq/kg)  =   2.400e-03
                       Total CO2 (mol/kg)  =   2.237e-03
                         Temperature (Â°C)  =  20.00
                  Electrical balance (eq)  =   2.000e-04
 Percent error, 100*(Cat-|An|)/(Cat+|An|)  =   0.02
                               Iterations  =  11
                                  Total H  = 1.110145e+02
                                  Total O  = 5.563013e+01

----------------------------Distribution of species----------------------------

                                               Log       Log       Log    mole V
   Species          Molality    Activity  Molality  Activity     Gamma   cmÂ³/mol

   OH-             2.125e-06   1.298e-06    -5.673    -5.887    -0.214     -2.88
   H+              6.837e-09   5.170e-09    -8.165    -8.287    -0.121      0.00
   H2O             5.551e+01   9.806e-01     1.744    -0.009     0.000     18.05
C(-4)         0.000e+00
   CH4             0.000e+00   0.000e+00  -127.127  -127.059     0.068     35.01
C(4)          2.237e-03
   HCO3-           1.592e-03   1.078e-03    -2.798    -2.967    -0.169     26.22
   MgHCO3+         2.791e-04   1.760e-04    -3.554    -3.754    -0.200      5.65
   NaHCO3          1.431e-04   2.046e-04    -3.844    -3.689     0.155     28.00
   MgCO3           9.455e-05   1.105e-04    -4.024    -3.957     0.068    -17.08
   CaHCO3+         4.499e-05   3.121e-05    -4.347    -4.506    -0.159      9.74
   CO3-2           4.178e-05   8.782e-06    -4.379    -5.056    -0.677     -0.97
   CaCO3           2.848e-05   3.327e-05    -4.545    -4.478     0.068    -14.62
   CO2             1.236e-05   1.369e-05    -4.908    -4.863     0.045     34.19
   (CO2)2          2.486e-12   2.904e-12   -11.604   -11.537     0.068     68.37
Ca            1.070e-02
   Ca+2            9.767e-03   2.470e-03    -2.010    -2.607    -0.597    -16.83
   CaSO4           8.598e-04   1.004e-03    -3.066    -2.998     0.068      7.30
   CaHCO3+         4.499e-05   3.121e-05    -4.347    -4.506    -0.159      9.74
   CaCO3           2.848e-05   3.327e-05    -4.545    -4.478     0.068    -14.62
   CaOH+           1.038e-07   7.775e-08    -6.984    -7.109    -0.126     (0)  
   CaHSO4+         4.256e-11   3.187e-11   -10.371   -10.497    -0.126     (0)  
Cl            5.660e-01
   Cl-             5.660e-01   3.582e-01    -0.247    -0.446    -0.199     18.60
   HCl             3.396e-10   6.581e-10    -9.469    -9.182     0.287     (0)  
H(0)          0.000e+00
   H2              0.000e+00   1.121e-40   -40.018   -39.950     0.068     28.61
K             1.060e-02
   K+              1.044e-02   6.531e-03    -1.981    -2.185    -0.204      9.50
   KSO4-           1.579e-04   6.145e-05    -3.802    -4.211    -0.410     32.02
Mg            5.510e-02
   Mg+2            4.878e-02   1.423e-02    -1.312    -1.847    -0.535    -20.28
   MgSO4           5.703e-03   7.783e-03    -2.244    -2.109     0.135     -1.74
   MgHCO3+         2.791e-04   1.760e-04    -3.554    -3.754    -0.200      5.65
   Mg(SO4)2-2      2.344e-04   6.691e-05    -3.630    -4.175    -0.544     47.35
   MgCO3           9.455e-05   1.105e-04    -4.024    -3.957     0.068    -17.08
   MgOH+           8.769e-06   6.192e-06    -5.057    -5.208    -0.151     (0)  
Na            4.850e-01
   Na+             4.757e-01   3.425e-01    -0.323    -0.465    -0.143     -0.74
   NaSO4-          9.190e-03   3.530e-03    -2.037    -2.452    -0.416     20.40
   NaHCO3          1.431e-04   2.046e-04    -3.844    -3.689     0.155     28.00
   NaOH            3.807e-17   4.447e-17   -16.419   -16.352     0.068     (0)  
O(0)          1.248e-14
   O2              6.240e-15   7.289e-15   -14.205   -14.137     0.068     29.98
S(-2)         0.000e+00
   HS-             0.000e+00   0.000e+00  -123.550  -123.764    -0.214     21.06
   H2S             0.000e+00   0.000e+00  -125.108  -125.041     0.068     34.96
   S-2             0.000e+00   0.000e+00  -127.839  -128.547    -0.708     (0)  
   (H2S)2          0.000e+00   0.000e+00  -251.484  -251.417     0.068     30.29
S(6)          2.930e-02
   SO4-2           1.292e-02   2.376e-03    -1.889    -2.624    -0.735     16.90
   NaSO4-          9.190e-03   3.530e-03    -2.037    -2.452    -0.416     20.40
   MgSO4           5.703e-03   7.783e-03    -2.244    -2.109     0.135     -1.74
   CaSO4           8.598e-04   1.004e-03    -3.066    -2.998     0.068      7.30
   Mg(SO4)2-2      2.344e-04   6.691e-05    -3.630    -4.175    -0.544     47.35
   KSO4-           1.579e-04   6.145e-05    -3.802    -4.211    -0.410     32.02
   HSO4-           1.433e-09   1.073e-09    -8.844    -8.969    -0.126     40.57
   CaHSO4+         4.256e-11   3.187e-11   -10.371   -10.497    -0.126     (0)  

------------------------------Saturation indices-------------------------------

  Phase               SI** log IAP   log K(293 K,   1 atm)

  Anhydrite        -1.01     -5.23   -4.22  CaSO4
  Aragonite         0.64     -7.66   -8.31  CaCO3
  Arcanite         -5.05     -6.99   -1.95  K2SO4
  Calcite           0.78     -7.66   -8.45  CaCO3
  CH4(g)         -124.31   -127.06   -2.75  CH4
  CO2(g)           -3.46     -4.86   -1.41  CO2
  Dolomite          2.44    -14.57  -17.00  CaMg(CO3)2
  Epsomite         -2.76     -4.53   -1.77  MgSO4:7H2O
  Gypsum           -0.66     -5.25   -4.58  CaSO4:2H2O
  H2(g)           -36.86    -39.95   -3.09  H2
  H2O(g)           -1.64     -0.01    1.63  H2O
  H2S(g)         -124.10   -132.05   -7.95  H2S
  Halite           -2.48     -0.91    1.57  NaCl
  Hexahydrite      -2.95     -4.52   -1.57  MgSO4:6H2O
  Kieserite        -3.28     -4.48   -1.20  MgSO4:H2O
  Mirabilite       -2.18     -3.64   -1.46  Na2SO4:10H2O
  O2(g)           -11.28    -14.14   -2.85  O2
  Sulfur          -93.22    -88.22    5.00  S
  Sylvite          -3.51     -2.63    0.87  KCl
  Thenardite       -3.28     -3.55   -0.28  Na2SO4

**For a gas, SI = log10(fugacity). Fugacity = pressure * phi / 1 atm.
  For ideal gases, phi = 1.

Reaction step 3.

Using solution 1.	
Using temperature 1.	

-----------------------------Solution composition------------------------------

	Elements           Molality       Moles

	C                 2.237e-03   2.237e-03
	Ca                1.070e-02   1.070e-02
	Cl                5.660e-01   5.660e-01
	K                 1.060e-02   1.060e-02
	Mg                5.510e-02   5.510e-02
	Na                4.850e-01   4.850e-01
	S                 2.930e-02   2.930e-02

----------------------------Description of solution----------------------------

                                       pH  =   8.034      Charge balance
                                       pe  =   8.774      Adjusted to redox equilibrium
      Specific Conductance (ÂµS/cm,  40Â°C)  = 69260
                          Density (g/cmÂ³)  =   1.01790
                               Volume (L)  =   1.01812
                        Viscosity (mPa s)  =   0.70543
                        Activity of water  =   0.981
                 Ionic strength (mol/kgw)  =   6.700e-01
                       Mass of water (kg)  =   1.000e+00
                 Total alkalinity (eq/kg)  =   2.400e-03
                       Total CO2 (mol/kg)  =   2.237e-03
                         Temperature (Â°C)  =  40.00
                  Electrical balance (eq)  =   2.000e-04
 Percent error, 100*(Cat-|An|)/(Cat+|An|)  =   0.02
                               Iterations  =  13
                                  Total H  = 1.110145e+02
                                  Total O  = 5.563013e+01

----------------------------Distribution of species----------------------------

                                               Log       Log       Log    mole V
   Species          Molality    Activity  Molality  Activity     Gamma   cmÂ³/mol

   OH-             5.155e-06   3.105e-06    -5.288    -5.508    -0.220     -2.20
   H+              1.233e-08   9.248e-09    -7.909    -8.034    -0.125      0.00
   H2O             5.551e+01   9.806e-01     1.744    -0.009     0.000     18.16
C(-4)         0.000e+00
   CH4             0.000e+00   0.000e+00  -116.835  -116.768     0.067     36.62
C(4)          2.237e-03
   HCO3-           1.489e-03   9.972e-04    -2.827    -3.001    -0.174     27.32
   NaHCO3          2.665e-04   3.799e-04    -3.574    -3.420     0.154     28.00
   MgHCO3+         2.634e-04   1.639e-04    -3.579    -3.785    -0.206      6.16
   MgCO3           8.572e-05   1.000e-04    -4.067    -4.000     0.067    -17.10
   CaHCO3+         5.127e-05   3.519e-05    -4.290    -4.454    -0.163     10.44
   CO3-2           3.220e-05   6.472e-06    -4.492    -5.189    -0.697      0.48
   CaCO3           3.146e-05   3.670e-05    -4.502    -4.435     0.067    -14.56
   CO2             1.685e-05   1.865e-05    -4.774    -4.729     0.044     35.16
   (CO2)2          8.621e-12   1.006e-11   -11.064   -10.997     0.067     70.32
Ca            1.070e-02
   Ca+2            9.710e-03   2.338e-03    -2.013    -2.631    -0.618    -16.46
   CaSO4           9.074e-04   1.059e-03    -3.042    -2.975     0.067      7.96
   CaHCO3+         5.127e-05   3.519e-05    -4.290    -4.454    -0.163     10.44
   CaCO3           3.146e-05   3.670e-05    -4.502    -4.435     0.067    -14.56
   CaOH+           5.558e-08   4.115e-08    -7.255    -7.386    -0.131     (0)  
   CaHSO4+         1.104e-10   8.171e-11    -9.957   -10.088    -0.131     (0)  
Cl            5.660e-01
   Cl-             5.660e-01   3.531e-01    -0.247    -0.452    -0.205     19.08
   HCl             5.315e-10   1.025e-09    -9.274    -8.989     0.285     (0)  
H(0)          2.548e-37
   H2              1.274e-37   1.487e-37   -36.895   -36.828     0.067     28.59
K             1.060e-02
   K+              1.048e-02   6.459e-03    -1.980    -2.190    -0.210     10.05
   KSO4-           1.207e-04   4.552e-05    -3.918    -4.342    -0.423     32.17
Mg            5.510e-02
   Mg+2            4.619e-02   1.286e-02    -1.335    -1.891    -0.555    -20.82
   MgSO4           8.301e-03   1.130e-02    -2.081    -1.947     0.134      1.18
   MgHCO3+         2.634e-04   1.639e-04    -3.579    -3.785    -0.206      6.16
   Mg(SO4)2-2      2.388e-04   6.561e-05    -3.622    -4.183    -0.561     52.17
   MgCO3           8.572e-05   1.000e-04    -4.067    -4.000     0.067    -17.10
   MgOH+           2.572e-05   1.798e-05    -4.590    -4.745    -0.155     (0)  
Na            4.850e-01
   Na+             4.783e-01   3.395e-01    -0.320    -0.469    -0.149      0.05
   NaSO4-          6.463e-03   2.407e-03    -2.190    -2.619    -0.429     21.03
   NaHCO3          2.665e-04   3.799e-04    -3.574    -3.420     0.154     28.00
   NaOH            9.034e-17   1.054e-16   -16.044   -15.977     0.067     (0)  
O(0)          1.264e-14
   O2              6.318e-15   7.372e-15   -14.199   -14.132     0.067     31.40
S(-2)         0.000e+00
   HS-             0.000e+00   0.000e+00  -113.346  -113.566    -0.220     21.90
   H2S             0.000e+00   0.000e+00  -114.895  -114.828     0.067     39.35
   S-2             0.000e+00   0.000e+00  -117.297  -118.026    -0.729     (0)  
   (H2S)2          0.000e+00   0.000e+00  -230.854  -230.787     0.067     29.37
S(6)          2.930e-02
   SO4-2           1.303e-02   2.287e-03    -1.885    -2.641    -0.756     19.34
   MgSO4           8.301e-03   1.130e-02    -2.081    -1.947     0.134      1.18
   NaSO4-          6.463e-03   2.407e-03    -2.190    -2.619    -0.429     21.03
   CaSO4           9.074e-04   1.059e-03    -3.042    -2.975     0.067      7.96
   Mg(SO4)2-2      2.388e-04   6.561e-05    -3.622    -4.183    -0.561     52.17
   KSO4-           1.207e-04   4.552e-05    -3.918    -4.342    -0.423     32.17
   HSO4-           3.926e-09   2.907e-09    -8.406    -8.537    -0.131     41.78
   CaHSO4+         1.104e-10   8.171e-11    -9.957   -10.088    -0.131     (0)  

------------------------------Saturation indices-------------------------------

  Phase               SI** log IAP   log K(313 K,   1 atm)

  Anhydrite        -0.82     -5.27   -4.45  CaSO4
  Aragonite         0.63     -7.82   -8.45  CaCO3
  Arcanite         -5.31     -7.02   -1.71  K2SO4
  Calcite           0.80     -7.82   -8.62  CaCO3
  CH4(g)         -113.86   -116.77   -2.91  CH4
  CO2(g)           -3.10     -4.73   -1.63  CO2
  Dolomite          2.50    -14.90  -17.40  CaMg(CO3)2
  Epsomite         -2.95     -4.59   -1.65  MgSO4:7H2O
  Gypsum           -0.69     -5.29   -4.60  CaSO4:2H2O
  H2(g)           -33.70    -36.83   -3.13  H2
  H2O(g)           -1.15     -0.01    1.14  H2O
  H2S(g)         -113.68   -121.60   -7.92  H2S
  Halite           -2.50     -0.92    1.58  NaCl
  Hexahydrite      -3.04     -4.58   -1.55  MgSO4:6H2O
  Kieserite        -3.40     -4.54   -1.14  MgSO4:H2O
  Mirabilite       -3.00     -3.66   -0.67  Na2SO4:10H2O
  O2(g)           -11.15    -14.13   -2.98  O2
  Sulfur          -85.76    -81.21    4.55  S
  Sylvite          -3.61     -2.64    0.97  KCl
  Thenardite       -3.21     -3.58   -0.37  Na2SO4

**For a gas, SI = log10(fugacity). Fugacity = pressure * phi / 1 atm.
  For ideal gases, phi = 1.

Reaction step 4.

Using solution 1.	
Using temperature 1.	

-----------------------------Solution composition------------------------------

	Elements           Molality       Moles

	C                 2.237e-03   2.237e-03
	Ca                1.070e-02   1.070e-02
	Cl                5.660e-01   5.660e-01
	K                 1.060e-02   1.060e-02
	Mg                5.510e-02   5.510e-02
	Na                4.850e-01   4.850e-01
	S                 2.930e-02   2.930e-02

----------------------------Description of solution----------------------------

                                       pH  =   7.789      Charge balance
                                       pe  =   7.781      Adjusted to redox equilibrium
      Specific Conductance (ÂµS/cm,  60Â°C)  = 92387
                          Density (g/cmÂ³)  =   1.00855
                               Volume (L)  =   1.02756
                        Viscosity (mPa s)  =   0.50643
                        Activity of water  =   0.981
                 Ionic strength (mol/kgw)  =   6.630e-01
                       Mass of water (kg)  =   1.000e+00
                 Total alkalinity (eq/kg)  =   2.400e-03
                       Total CO2 (mol/kg)  =   2.237e-03
                         Temperature (Â°C)  =  60.00
                  Electrical balance (eq)  =   2.000e-04
 Percent error, 100*(Cat-|An|)/(Cat+|An|)  =   0.02
                               Iterations  =   9
                                  Total H  = 1.110145e+02
                                  Total O  = 5.563013e+01

----------------------------Distribution of species----------------------------

                                               Log       Log       Log    mole V
   Species          Molality    Activity  Molality  Activity     Gamma   cmÂ³/mol

   OH-             9.826e-06   5.819e-06    -5.008    -5.235    -0.228     -2.20
   H+              2.189e-08   1.627e-08    -7.660    -7.789    -0.129      0.00
   H2O             5.551e+01   9.806e-01     1.744    -0.009     0.000     18.32
C(-4)         0.000e+00
   CH4             0.000e+00   0.000e+00  -109.211  -109.144     0.066     38.02
C(4)          2.237e-03
   HCO3-           1.356e-03   8.958e-04    -2.868    -3.048    -0.180     27.53
   NaHCO3          4.307e-04   6.118e-04    -3.366    -3.213     0.152     28.00
   MgHCO3+         2.563e-04   1.570e-04    -3.591    -3.804    -0.213      6.35
   MgCO3           6.381e-05   7.433e-05    -4.195    -4.129     0.066    -17.09
   CaHCO3+         4.964e-05   3.366e-05    -4.304    -4.473    -0.169     10.82
   CaCO3           3.364e-05   3.919e-05    -4.473    -4.407     0.066    -14.51
   CO2             2.622e-05   2.900e-05    -4.581    -4.538     0.044     36.19
   CO3-2           2.073e-05   3.954e-06    -4.683    -5.403    -0.720      0.27
   (CO2)2          3.416e-11   3.979e-11   -10.467   -10.400     0.066     72.38
Ca            1.070e-02
   Ca+2            9.757e-03   2.217e-03    -2.011    -2.654    -0.643    -16.45
   CaSO4           8.599e-04   1.002e-03    -3.066    -2.999     0.066      8.37
   CaHCO3+         4.964e-05   3.366e-05    -4.304    -4.473    -0.169     10.82
   CaCO3           3.364e-05   3.919e-05    -4.473    -4.407     0.066    -14.51
   CaOH+           3.036e-08   2.218e-08    -7.518    -7.654    -0.136     (0)  
   CaHSO4+         2.730e-10   1.994e-10    -9.564    -9.700    -0.136     (0)  
Cl            5.660e-01
   Cl-             5.660e-01   3.472e-01    -0.247    -0.459    -0.212     18.99
   HCl             8.179e-10   1.566e-09    -9.087    -8.805     0.282     (0)  
H(0)          6.444e-35
   H2              3.222e-35   3.753e-35   -34.492   -34.426     0.066     28.58
K             1.060e-02
   K+              1.051e-02   6.365e-03    -1.979    -2.196    -0.218     10.42
   KSO4-           9.398e-05   3.420e-05    -4.027    -4.466    -0.439     31.01
Mg            5.510e-02
   Mg+2            4.368e-02   1.151e-02    -1.360    -1.939    -0.579    -21.39
   MgSO4           1.083e-02   1.470e-02    -1.965    -1.833     0.133      2.77
   MgHCO3+         2.563e-04   1.570e-04    -3.591    -3.804    -0.213      6.35
   Mg(SO4)2-2      2.103e-04   5.524e-05    -3.677    -4.258    -0.581     57.16
   MgCO3           6.381e-05   7.433e-05    -4.195    -4.129     0.066    -17.09
   MgOH+           6.166e-05   4.261e-05    -4.210    -4.370    -0.160     (0)  
Na            4.850e-01
   Na+             4.796e-01   3.347e-01    -0.319    -0.475    -0.156      0.53
   NaSO4-          5.011e-03   1.801e-03    -2.300    -2.745    -0.444     20.69
   NaHCO3          4.307e-04   6.118e-04    -3.366    -3.213     0.152     28.00
   NaOH            1.672e-16   1.947e-16   -15.777   -15.711     0.066     (0)  
O(0)          6.274e-14
   O2              3.137e-14   3.654e-14   -13.503   -13.437     0.066     32.38
S(-2)         0.000e+00
   HS-             0.000e+00   0.000e+00  -105.766  -105.993    -0.228     22.12
   H2S             0.000e+00   0.000e+00  -107.227  -107.161     0.066     42.24
   S-2             0.000e+00   0.000e+00  -109.438  -110.191    -0.753     (0)  
   (H2S)2          0.000e+00   0.000e+00  -215.375  -215.308     0.066     28.10
S(6)          2.930e-02
   SO4-2           1.208e-02   2.008e-03    -1.918    -2.697    -0.779     19.79
   MgSO4           1.083e-02   1.470e-02    -1.965    -1.833     0.133      2.77
   NaSO4-          5.011e-03   1.801e-03    -2.300    -2.745    -0.444     20.69
   CaSO4           8.599e-04   1.002e-03    -3.066    -2.999     0.066      8.37
   Mg(SO4)2-2      2.103e-04   5.524e-05    -3.677    -4.258    -0.581     57.16
   KSO4-           9.398e-05   3.420e-05    -4.027    -4.466    -0.439     31.01
   HSO4-           1.024e-08   7.481e-09    -7.990    -8.126    -0.136     42.31
   CaHSO4+         2.730e-10   1.994e-10    -9.564    -9.700    -0.136     (0)  

------------------------------Saturation indices-------------------------------

  Phase               SI** log IAP   log K(333 K,   1 atm)

  Anhydrite        -0.65     -5.35   -4.71  CaSO4
  Aragonite         0.58     -8.06   -8.64  CaCO3
  Arcanite         -5.52     -7.09   -1.57  K2SO4
  Calcite           0.82     -8.06   -8.88  CaCO3
  CH4(g)         -106.15   -109.14   -2.99  CH4
  CO2(g)           -2.75     -4.54   -1.78  CO2
  Dolomite          2.56    -15.40  -17.96  CaMg(CO3)2
  Epsomite         -3.17     -4.70   -1.52  MgSO4:7H2O
  Gypsum           -0.72     -5.37   -4.65  CaSO4:2H2O
  H2(g)           -31.29    -34.43   -3.14  H2
  H2O(g)           -0.72     -0.01    0.71  H2O
  H2S(g)         -105.86   -113.78   -7.92  H2S
  Halite           -2.53     -0.93    1.60  NaCl
  Hexahydrite      -3.17     -4.69   -1.52  MgSO4:6H2O
  Kieserite        -3.36     -4.64   -1.28  MgSO4:H2O
  Mirabilite       -3.61     -3.73   -0.12  Na2SO4:10H2O
  O2(g)           -10.37    -13.44   -3.06  O2
  Sulfur          -80.17    -76.02    4.15  S
  Sylvite          -3.71     -2.66    1.06  KCl
  Thenardite       -3.17     -3.65   -0.48  Na2SO4

**For a gas, SI = log10(fugacity). Fugacity = pressure * phi / 1 atm.
  For ideal gases, phi = 1.

Reaction step 5.

Using solution 1.	
Using temperature 1.	

-----------------------------Solution composition------------------------------

	Elements           Molality       Moles

	C                 2.237e-03   2.237e-03
	Ca                1.070e-02   1.070e-02
	Cl                5.660e-01   5.660e-01
	K                 1.060e-02   1.060e-02
	Mg                5.510e-02   5.510e-02
	Na                4.850e-01   4.850e-01
	S                 2.930e-02   2.930e-02

----------------------------Description of solution----------------------------

                                       pH  =   7.523      Charge balance
                                       pe  =   6.621      Adjusted to redox equilibrium
      Specific Conductance (ÂµS/cm,  80Â°C)  = 115974
                          Density (g/cmÂ³)  =   0.99710
                               Volume (L)  =   1.03936
                        Viscosity (mPa s)  =   0.38647
                        Activity of water  =   0.981
                 Ionic strength (mol/kgw)  =   6.555e-01
                       Mass of water (kg)  =   1.000e+00
                 Total alkalinity (eq/kg)  =   2.400e-03
                       Total CO2 (mol/kg)  =   2.237e-03
                         Temperature (Â°C)  =  80.00
                  Electrical balance (eq)  =   2.000e-04
 Percent error, 100*(Cat-|An|)/(Cat+|An|)  =   0.02
                               Iterations  =  11
                                  Total H  = 1.110145e+02
                                  Total O  = 5.563013e+01

----------------------------Distribution of species----------------------------

                                               Log       Log       Log    mole V
   Species          Molality    Activity  Molality  Activity     Gamma   cmÂ³/mol

   OH-             1.450e-05   8.420e-06    -4.839    -5.075    -0.236     -2.69
   H+              4.082e-08   3.002e-08    -7.389    -7.523    -0.133      0.00
   H2O             5.551e+01   9.806e-01     1.744    -0.008     0.000     18.54
C(-4)         0.000e+00
   CH4             0.000e+00   0.000e+00   -99.844   -99.778     0.066     39.45
C(4)          2.237e-03
   HCO3-           1.198e-03   7.797e-04    -2.922    -3.108    -0.187     27.14
   NaHCO3          6.139e-04   8.687e-04    -3.212    -3.061     0.151     28.00
   MgHCO3+         2.531e-04   1.522e-04    -3.597    -3.817    -0.221      6.35
   CO2             4.708e-05   5.201e-05    -4.327    -4.284     0.043     37.40
   CaHCO3+         4.610e-05   3.081e-05    -4.336    -4.511    -0.175     11.03
   MgCO3           3.796e-05   4.415e-05    -4.421    -4.355     0.066    -17.08
   CaCO3           2.952e-05   3.433e-05    -4.530    -4.464     0.066    -14.47
   CO3-2           1.084e-05   1.945e-06    -4.965    -5.711    -0.746     -1.09
   (CO2)2          1.614e-10   1.877e-10    -9.792    -9.727     0.066     74.80
Ca            1.070e-02
   Ca+2            9.867e-03   2.097e-03    -2.006    -2.678    -0.673    -16.67
   CaSO4           7.572e-04   8.806e-04    -3.121    -3.055     0.066      8.66
   CaHCO3+         4.610e-05   3.081e-05    -4.336    -4.511    -0.175     11.03
   CaCO3           2.952e-05   3.433e-05    -4.530    -4.464     0.066    -14.47
   CaOH+           1.581e-08   1.137e-08    -7.801    -7.944    -0.143     (0)  
   CaHSO4+         6.990e-10   5.027e-10    -9.155    -9.299    -0.143     (0)  
Cl            5.660e-01
   Cl-             5.660e-01   3.404e-01    -0.247    -0.468    -0.221     18.50
   HCl             1.317e-09   2.503e-09    -8.880    -8.602     0.279     (0)  
H(0)          3.954e-32
   H2              1.977e-32   2.299e-32   -31.704   -31.638     0.066     28.57
K             1.060e-02
   K+              1.052e-02   6.250e-03    -1.978    -2.204    -0.226     10.69
   KSO4-           7.553e-05   2.637e-05    -4.122    -4.579    -0.457     28.88
Mg            5.510e-02
   Mg+2            4.135e-02   1.022e-02    -1.384    -1.991    -0.607    -22.06
   MgSO4           1.317e-02   1.781e-02    -1.880    -1.749     0.131      3.60
   MgHCO3+         2.531e-04   1.522e-04    -3.597    -3.817    -0.221      6.35
   Mg(SO4)2-2      1.708e-04   4.259e-05    -3.767    -4.371    -0.603     62.40
   MgOH+           1.177e-04   8.027e-05    -3.929    -4.095    -0.166     (0)  
   MgCO3           3.796e-05   4.415e-05    -4.421    -4.355     0.066    -17.08
Na            4.850e-01
   Na+             4.801e-01   3.286e-01    -0.319    -0.483    -0.165      0.87
   NaSO4-          4.267e-03   1.471e-03    -2.370    -2.832    -0.462     19.65
   NaHCO3          6.139e-04   8.687e-04    -3.212    -3.061     0.151     28.00
   NaOH            2.379e-16   2.767e-16   -15.624   -15.558     0.066     (0)  
O(0)          1.261e-14
   O2              6.307e-15   7.334e-15   -14.200   -14.135     0.066     33.17
S(-2)         0.000e+00
   HS-             0.000e+00   0.000e+00   -96.396   -96.633    -0.236     21.93
   H2S             0.000e+00   0.000e+00   -97.680   -97.614     0.066     44.39
   S-2             0.000e+00   0.000e+00   -99.866  -100.647    -0.781     (0)  
   (H2S)2          0.000e+00   0.000e+00  -196.184  -196.118     0.066     26.43
S(6)          2.930e-02
   MgSO4           1.317e-02   1.781e-02    -1.880    -1.749     0.131      3.60
   SO4-2           1.069e-02   1.667e-03    -1.971    -2.778    -0.807     18.93
   NaSO4-          4.267e-03   1.471e-03    -2.370    -2.832    -0.462     19.65
   CaSO4           7.572e-04   8.806e-04    -3.121    -3.055     0.066      8.66
   Mg(SO4)2-2      1.708e-04   4.259e-05    -3.767    -4.371    -0.603     62.40
   KSO4-           7.553e-05   2.637e-05    -4.122    -4.579    -0.457     28.88
   HSO4-           2.773e-08   1.994e-08    -7.557    -7.700    -0.143     42.40
   CaHSO4+         6.990e-10   5.027e-10    -9.155    -9.299    -0.143     (0)  

------------------------------Saturation indices-------------------------------

  Phase               SI** log IAP   log K(353 K,   1 atm)

  Anhydrite        -0.48     -5.46   -4.98  CaSO4
  Aragonite         0.49     -8.39   -8.88  CaCO3
  Arcanite         -5.70     -7.19   -1.49  K2SO4
  Calcite           0.82     -8.39   -9.21  CaCO3
  CH4(g)          -96.76    -99.78   -3.02  CH4
  CO2(g)           -2.39     -4.28   -1.90  CO2
  Dolomite          2.57    -16.09  -18.66  CaMg(CO3)2
  Epsomite         -3.43     -4.83   -1.40  MgSO4:7H2O
  Gypsum           -0.74     -5.47   -4.74  CaSO4:2H2O
  H2(g)           -28.51    -31.64   -3.13  H2
  H2O(g)           -0.34     -0.01    0.33  H2O
  H2S(g)          -96.21   -104.16   -7.95  H2S
  Halite           -2.56     -0.95    1.61  NaCl
  Hexahydrite      -3.33     -4.82   -1.49  MgSO4:6H2O
  Kieserite        -3.20     -4.78   -1.58  MgSO4:H2O
  Mirabilite       -4.03     -3.83    0.21  Na2SO4:10H2O
  O2(g)           -11.03    -14.13   -3.11  O2
  Sulfur          -73.12    -69.33    3.80  S
  Sylvite          -3.80     -2.67    1.13  KCl
  Thenardite       -3.15     -3.74   -0.59  Na2SO4

**For a gas, SI = log10(fugacity). Fugacity = pressure * phi / 1 atm.
  For ideal gases, phi = 1.

Reaction step 6.

Using solution 1.	
Using temperature 1.	

-----------------------------Solution composition------------------------------

	Elements           Molality       Moles

	C                 2.237e-03   2.237e-03
	Ca                1.070e-02   1.070e-02
	Cl                5.660e-01   5.660e-01
	K                 1.060e-02   1.060e-02
	Mg                5.510e-02   5.510e-02
	Na                4.850e-01   4.850e-01
	S                 2.930e-02   2.930e-02

----------------------------Description of solution----------------------------

                                       pH  =   7.252      Charge balance
                                       pe  =   5.772      Adjusted to redox equilibrium
      Specific Conductance (ÂµS/cm, 100Â°C)  = 139209
                          Density (g/cmÂ³)  =   0.98384
                               Volume (L)  =   1.05337
                        Viscosity (mPa s)  =   0.30856
                        Activity of water  =   0.981
                 Ionic strength (mol/kgw)  =   6.484e-01
                       Mass of water (kg)  =   1.000e+00
                 Total alkalinity (eq/kg)  =   2.400e-03
                       Total CO2 (mol/kg)  =   2.237e-03
                         Temperature (Â°C)  = 100.00
                  Electrical balance (eq)  =   2.000e-04
 Percent error, 100*(Cat-|An|)/(Cat+|An|)  =   0.02
                               Iterations  =  10
                                  Total H  = 1.110145e+02
                                  Total O  = 5.563013e+01

----------------------------Distribution of species----------------------------

                                               Log       Log       Log    mole V
   Species          Molality    Activity  Molality  Activity     Gamma   cmÂ³/mol

   OH-             1.784e-05   1.012e-05    -4.749    -4.995    -0.246     -3.63
   H+              7.704e-08   5.596e-08    -7.113    -7.252    -0.139      0.00
   H2O             5.551e+01   9.807e-01     1.744    -0.008     0.000     18.80
C(-4)         0.000e+00
   CH4             0.000e+00   0.000e+00   -92.748   -92.683     0.065     41.06
C(4)          2.237e-03
   HCO3-           1.026e-03   6.558e-04    -2.989    -3.183    -0.194     26.21
   NaHCO3          7.808e-04   1.101e-03    -3.107    -2.958     0.149     28.00
   MgHCO3+         2.504e-04   1.475e-04    -3.601    -3.831    -0.230      6.18
   CO2             9.056e-05   9.993e-05    -4.043    -4.000     0.043     38.89
   CaHCO3+         4.457e-05   2.931e-05    -4.351    -4.533    -0.182     11.12
   CaCO3           2.054e-05   2.385e-05    -4.687    -4.623     0.065    -14.43
   MgCO3           1.924e-05   2.234e-05    -4.716    -4.651     0.065    -17.07
   CO3-2           4.903e-06   8.197e-07    -5.310    -6.086    -0.777     -3.45
   (CO2)2          7.983e-10   9.269e-10    -9.098    -9.033     0.065     77.78
Ca            1.070e-02
   Ca+2            1.001e-02   1.970e-03    -2.000    -2.706    -0.706    -17.10
   CaSO4           6.292e-04   7.305e-04    -3.201    -3.136     0.065      8.86
   CaHCO3+         4.457e-05   2.931e-05    -4.351    -4.533    -0.182     11.12
   CaCO3           2.054e-05   2.385e-05    -4.687    -4.623     0.065    -14.43
   CaOH+           8.110e-09   5.729e-09    -8.091    -8.242    -0.151     (0)  
   CaHSO4+         1.788e-09   1.263e-09    -8.748    -8.898    -0.151     (0)  
Cl            5.660e-01
   Cl-             5.660e-01   3.329e-01    -0.247    -0.478    -0.231     17.61
   HCl             2.135e-09   4.030e-09    -8.671    -8.395     0.276     (0)  
H(0)          5.998e-30
   H2              2.999e-30   3.482e-30   -29.523   -29.458     0.065     28.57
K             1.060e-02
   K+              1.054e-02   6.116e-03    -1.977    -2.214    -0.236     10.93
   KSO4-           6.266e-05   2.085e-05    -4.203    -4.681    -0.478     25.82
Mg            5.510e-02
   Mg+2            3.928e-02   9.028e-03    -1.406    -2.044    -0.639    -22.85
   MgSO4           1.523e-02   2.052e-02    -1.817    -1.688     0.130      3.89
   MgHCO3+         2.504e-04   1.475e-04    -3.601    -3.831    -0.230      6.18
   MgOH+           1.916e-04   1.286e-04    -3.718    -3.891    -0.173     (0)  
   Mg(SO4)2-2      1.319e-04   3.095e-05    -3.880    -4.509    -0.629     68.01
   MgCO3           1.924e-05   2.234e-05    -4.716    -4.651     0.065    -17.07
Na            4.850e-01
   Na+             4.803e-01   3.215e-01    -0.319    -0.493    -0.174      1.14
   NaSO4-          3.941e-03   1.296e-03    -2.404    -2.888    -0.483     17.97
   NaHCO3          7.808e-04   1.101e-03    -3.107    -2.958     0.149     28.00
   NaOH            2.804e-16   3.255e-16   -15.552   -15.487     0.065     (0)  
O(0)          1.245e-14
   O2              6.224e-15   7.226e-15   -14.206   -14.141     0.065     33.90
S(-2)         0.000e+00
   HS-             0.000e+00   0.000e+00   -89.255   -89.501    -0.246     21.38
   H2S             0.000e+00   0.000e+00   -90.297   -90.232     0.065     46.17
   S-2             0.000e+00   0.000e+00   -92.571   -93.384    -0.813     (0)  
   (H2S)2          0.000e+00   0.000e+00  -181.362  -181.297     0.065     24.22
S(6)          2.930e-02
   MgSO4           1.523e-02   2.052e-02    -1.817    -1.688     0.130      3.89
   SO4-2           9.177e-03   1.330e-03    -2.037    -2.876    -0.839     17.02
   NaSO4-          3.941e-03   1.296e-03    -2.404    -2.888    -0.483     17.97
   CaSO4           6.292e-04   7.305e-04    -3.201    -3.136     0.065      8.86
   Mg(SO4)2-2      1.319e-04   3.095e-05    -3.880    -4.509    -0.629     68.01
   KSO4-           6.266e-05   2.085e-05    -4.203    -4.681    -0.478     25.82
   HSO4-           7.552e-08   5.335e-08    -7.122    -7.273    -0.151     42.16
   CaHSO4+         1.788e-09   1.263e-09    -8.748    -8.898    -0.151     (0)  

------------------------------Saturation indices-------------------------------

  Phase               SI** log IAP   log K(373 K,   1 atm)

  Anhydrite        -0.32     -5.58   -5.26  CaSO4
  Aragonite         0.37     -8.79   -9.17  CaCO3
  Arcanite         -5.84     -7.30   -1.46  K2SO4
  Calcite           0.82     -8.79   -9.61  CaCO3
  CH4(g)          -89.68    -92.68   -3.00  CH4
  CO2(g)           -2.02     -4.00   -1.98  CO2
  Dolomite          2.56    -16.92  -19.48  CaMg(CO3)2
  Epsomite         -3.71     -4.98   -1.27  MgSO4:7H2O
  Gypsum           -0.75     -5.60   -4.85  CaSO4:2H2O
  H2(g)           -26.36    -29.46   -3.10  H2
  H2O(g)           -0.01     -0.01    0.00  H2O
  H2S(g)          -88.75    -96.75   -8.00  H2S
  Halite           -2.59     -0.97    1.62  NaCl
  Hexahydrite      -3.51     -4.97   -1.46  MgSO4:6H2O
  Kieserite        -2.94     -4.93   -1.99  MgSO4:H2O
  Mirabilite       -4.28     -3.95    0.33  Na2SO4:10H2O
  O2(g)           -11.03    -14.14   -3.11  O2
  Sulfur          -67.67    -64.18    3.48  S
  Sylvite          -3.89     -2.69    1.20  KCl
  Thenardite       -3.14     -3.86   -0.73  Na2SO4

**For a gas, SI = log10(fugacity). Fugacity = pressure * phi / 1 atm.
  For ideal gases, phi = 1.

Reaction step 7.

Using solution 1.	
Using temperature 1.	

-----------------------------Solution composition------------------------------

	Elements           Molality       Moles

	C                 2.237e-03   2.237e-03
	Ca                1.070e-02   1.070e-02
	Cl                5.660e-01   5.660e-01
	K                 1.060e-02   1.060e-02
	Mg                5.510e-02   5.510e-02
	Na                4.850e-01   4.850e-01
	S                 2.930e-02   2.930e-02

----------------------------Description of solution----------------------------

                                       pH  =   7.007      Charge balance
                                       pe  =   5.013      Adjusted to redox equilibrium
      Specific Conductance (ÂµS/cm, 120Â°C)  = 161383
                          Density (g/cmÂ³)  =   0.96897
                               Volume (L)  =   1.06954
                        Viscosity (mPa s)  =   0.25517
                        Activity of water  =   0.981
                 Ionic strength (mol/kgw)  =   6.421e-01
                       Mass of water (kg)  =   1.000e+00
                 Total alkalinity (eq/kg)  =   2.400e-03
                       Total CO2 (mol/kg)  =   2.237e-03
                         Temperature (Â°C)  = 120.00
                           Pressure (atm)  =  1.92
                  Electrical balance (eq)  =   2.000e-04
 Percent error, 100*(Cat-|An|)/(Cat+|An|)  =   0.02
                               Iterations  =  11
                                  Total H  = 1.110145e+02
                                  Total O  = 5.563013e+01

----------------------------Distribution of species----------------------------

                                               Log       Log       Log    mole V
   Species          Molality    Activity  Molality  Activity     Gamma   cmÂ³/mol

   OH-             2.010e-05   1.112e-05    -4.697    -4.954    -0.257     -5.07
   H+              1.374e-07   9.844e-08    -6.862    -7.007    -0.145      0.00
   H2O             5.551e+01   9.807e-01     1.744    -0.008     0.000     19.10
C(-4)         0.000e+00
   CH4             0.000e+00   0.000e+00   -86.446   -86.382     0.064     43.00
C(4)          2.237e-03
   NaHCO3          8.971e-04   1.260e-03    -3.047    -2.899     0.148     28.01
   HCO3-           8.514e-04   5.337e-04    -3.070    -3.273    -0.203     24.71
   MgHCO3+         2.470e-04   1.420e-04    -3.607    -3.848    -0.240      5.86
   CO2             1.706e-04   1.881e-04    -3.768    -3.726     0.042     40.79
   CaHCO3+         4.765e-05   3.075e-05    -4.322    -4.512    -0.190     11.11
   CaCO3           1.159e-05   1.343e-05    -4.936    -4.872     0.064    -14.38
   MgCO3           9.109e-06   1.056e-05    -5.041    -4.976     0.064    -17.03
   CO3-2           2.099e-06   3.239e-07    -5.678    -6.490    -0.812     -6.86
   (CO2)2          3.505e-09   4.063e-09    -8.455    -8.391     0.064     81.57
Ca            1.070e-02
   Ca+2            1.014e-02   1.832e-03    -1.994    -2.737    -0.743    -17.73
   CaSO4           4.969e-04   5.760e-04    -3.304    -3.240     0.064      9.02
   CaHCO3+         4.765e-05   3.075e-05    -4.322    -4.512    -0.190     11.11
   CaCO3           1.159e-05   1.343e-05    -4.936    -4.872     0.064    -14.38
   CaOH+           4.374e-09   3.029e-09    -8.359    -8.519    -0.160     (0)  
   CaHSO4+         4.262e-09   2.951e-09    -8.370    -8.530    -0.160     (0)  
Cl            5.660e-01
   Cl-             5.660e-01   3.245e-01    -0.247    -0.489    -0.242     16.28
   HCl             3.256e-09   6.108e-09    -8.487    -8.214     0.273     (0)  
H(0)          5.423e-28
   H2              2.712e-28   3.144e-28   -27.567   -27.503     0.064     28.56
K             1.060e-02
   K+              1.055e-02   5.965e-03    -1.977    -2.224    -0.248     11.16
   KSO4-           5.348e-05   1.684e-05    -4.272    -4.774    -0.502     21.73
Mg            5.510e-02
   Mg+2            3.753e-02   7.946e-03    -1.426    -2.100    -0.674    -23.82
   MgSO4           1.693e-02   2.275e-02    -1.771    -1.643     0.128      3.75
   MgOH+           2.915e-04   1.922e-04    -3.535    -3.716    -0.181     (0)  
   MgHCO3+         2.470e-04   1.420e-04    -3.607    -3.848    -0.240      5.86
   Mg(SO4)2-2      9.801e-05   2.150e-05    -4.009    -4.668    -0.659     74.14
   MgCO3           9.109e-06   1.056e-05    -5.041    -4.976     0.064    -17.03
Na            4.850e-01
   Na+             4.802e-01   3.136e-01    -0.319    -0.504    -0.185      1.37
   NaSO4-          3.898e-03   1.213e-03    -2.409    -2.916    -0.507     15.57
   NaHCO3          8.971e-04   1.260e-03    -3.047    -2.899     0.148     28.01
   NaOH            3.007e-16   3.486e-16   -15.522   -15.458     0.064     (0)  
O(0)          1.244e-14
   O2              6.220e-15   7.211e-15   -14.206   -14.142     0.064     34.64
S(-2)         0.000e+00
   HS-             0.000e+00   0.000e+00   -82.868   -83.125    -0.257     20.46
   H2S             0.000e+00   0.000e+00   -83.646   -83.582     0.064     47.79
   S-2             0.000e+00   0.000e+00   -86.044   -86.893    -0.849     (0)  
   (H2S)2          0.000e+00   0.000e+00  -168.037  -167.972     0.064     21.36
S(6)          2.930e-02
   MgSO4           1.693e-02   2.275e-02    -1.771    -1.643     0.128      3.75
   SO4-2           7.727e-03   1.030e-03    -2.112    -2.987    -0.875     14.08
   NaSO4-          3.898e-03   1.213e-03    -2.409    -2.916    -0.507     15.57
   CaSO4           4.969e-04   5.760e-04    -3.304    -3.240     0.064      9.02
   Mg(SO4)2-2      9.801e-05   2.150e-05    -4.009    -4.668    -0.659     74.14
   KSO4-           5.348e-05   1.684e-05    -4.272    -4.774    -0.502     21.73
   HSO4-           1.934e-07   1.339e-07    -6.714    -6.873    -0.160     41.60
   CaHSO4+         4.262e-09   2.951e-09    -8.370    -8.530    -0.160     (0)  

------------------------------Saturation indices-------------------------------

  Phase               SI** log IAP   log K(393 K,   2 atm)

  Anhydrite        -0.17     -5.72   -5.55  CaSO4
  Aragonite         0.27     -9.23   -9.50  CaCO3
  Arcanite         -5.95     -7.44   -1.48  K2SO4
  Calcite           0.84     -9.23  -10.07  CaCO3
  CH4(g)          -83.41    -86.38   -2.97  CH4
  CO2(g)           -1.69     -3.73   -2.03  CO2
  Dolomite          2.58    -17.82  -20.40  CaMg(CO3)2
  Epsomite         -4.00     -5.15   -1.15  MgSO4:7H2O
  Gypsum           -0.76     -5.74   -4.98  CaSO4:2H2O
  H2(g)           -24.44    -27.50   -3.06  H2
  H2O(g)            0.28     -0.01   -0.29  H2O
  H2S(g)          -82.05    -90.13   -8.08  H2S
  Halite           -2.62     -0.99    1.63  NaCl
  Hexahydrite      -3.70     -5.14   -1.44  MgSO4:6H2O
  Kieserite        -2.60     -5.10   -2.50  MgSO4:H2O
  Mirabilite       -4.37     -4.08    0.29  Na2SO4:10H2O
  O2(g)           -11.04    -14.14   -3.10  O2
  Sulfur          -62.74    -59.54    3.20  S
  Sylvite          -3.97     -2.71    1.26  KCl
  Thenardite       -3.11     -3.99   -0.88  Na2SO4

**For a gas, SI = log10(fugacity). Fugacity = pressure * phi / 1 atm.
  For ideal gases, phi = 1.

Reaction step 8.

Using solution 1.	
Using temperature 1.	

-----------------------------Solution composition------------------------------

	Elements           Molality       Moles

	C                 2.237e-03   2.237e-03
	Ca                1.070e-02   1.070e-02
	Cl                5.660e-01   5.660e-01
	K                 1.060e-02   1.060e-02
	Mg                5.510e-02   5.510e-02
	Na                4.850e-01   4.850e-01
	S                 2.930e-02   2.930e-02

----------------------------Description of solution----------------------------

                                       pH  =   6.798      Charge balance
                                       pe  =   4.558      Adjusted to redox equilibrium
      Specific Conductance (ÂµS/cm, 140Â°C)  = 181945
                          Density (g/cmÂ³)  =   0.95258
                               Volume (L)  =   1.08794
                        Viscosity (mPa s)  =   0.21701
                        Activity of water  =   0.981
                 Ionic strength (mol/kgw)  =   6.368e-01
                       Mass of water (kg)  =   1.000e+00
                 Total alkalinity (eq/kg)  =   2.400e-03
                       Total CO2 (mol/kg)  =   2.237e-03
                         Temperature (Â°C)  = 140.00
                           Pressure (atm)  =  3.50
                  Electrical balance (eq)  =   2.000e-04
 Percent error, 100*(Cat-|An|)/(Cat+|An|)  =   0.02
                               Iterations  =  10
                                  Total H  = 1.110145e+02
                                  Total O  = 5.563013e+01

----------------------------Distribution of species----------------------------

                                               Log       Log       Log    mole V
   Species          Molality    Activity  Molality  Activity     Gamma   cmÂ³/mol

   OH-             2.175e-05   1.168e-05    -4.663    -4.932    -0.270     -7.13
   H+              2.256e-07   1.591e-07    -6.647    -6.798    -0.152      0.00
   H2O             5.551e+01   9.807e-01     1.744    -0.008     0.000     19.45
C(-4)         0.000e+00
   CH4             0.000e+00   0.000e+00   -82.776   -82.712     0.064     45.44
C(4)          2.237e-03
   NaHCO3          9.391e-04   1.316e-03    -3.027    -2.881     0.146     28.01
   HCO3-           6.856e-04   4.201e-04    -3.164    -3.377    -0.213     22.53
   CO2             3.019e-04   3.325e-04    -3.520    -3.478     0.042     43.25
   MgHCO3+         2.411e-04   1.349e-04    -3.618    -3.870    -0.252      5.35
   CaHCO3+         5.860e-05   3.703e-05    -4.232    -4.431    -0.199     11.01
   CaCO3           5.264e-06   6.095e-06    -5.279    -5.215     0.064    -14.32
   MgCO3           4.199e-06   4.862e-06    -5.377    -5.313     0.064    -16.98
   CO3-2           8.873e-07   1.251e-07    -6.052    -6.903    -0.851    -11.52
   (CO2)2          1.270e-08   1.471e-08    -7.896    -7.833     0.064     86.50
Ca            1.070e-02
   Ca+2            1.026e-02   1.681e-03    -1.989    -2.774    -0.786    -18.60
   CaSO4           3.745e-04   4.336e-04    -3.427    -3.363     0.064      9.14
   CaHCO3+         5.860e-05   3.703e-05    -4.232    -4.431    -0.199     11.01
   CaCO3           5.264e-06   6.095e-06    -5.279    -5.215     0.064    -14.32
   CaHSO4+         9.179e-09   6.216e-09    -8.037    -8.206    -0.169     (0)  
   CaOH+           2.541e-09   1.720e-09    -8.595    -8.764    -0.169     (0)  
Cl            5.660e-01
   Cl-             5.660e-01   3.152e-01    -0.247    -0.501    -0.254     14.41
   HCl             4.542e-09   8.478e-09    -8.343    -8.072     0.271     (0)  
H(0)          1.034e-26
   H2              5.172e-27   5.988e-27   -26.286   -26.223     0.064     28.56
K             1.060e-02
   K+              1.055e-02   5.795e-03    -1.977    -2.237    -0.260     11.41
   KSO4-           4.677e-05   1.383e-05    -4.330    -4.859    -0.529     16.37
Mg            5.510e-02
   Mg+2            3.612e-02   6.975e-03    -1.442    -2.156    -0.714    -25.03
   MgSO4           1.823e-02   2.445e-02    -1.739    -1.612     0.127      3.16
   MgOH+           4.339e-04   2.805e-04    -3.363    -3.552    -0.189     (0)  
   MgHCO3+         2.411e-04   1.349e-04    -3.618    -3.870    -0.252      5.35
   Mg(SO4)2-2      7.080e-05   1.438e-05    -4.150    -4.842    -0.692     80.99
   MgCO3           4.199e-06   4.862e-06    -5.377    -5.313     0.064    -16.98
Na            4.850e-01
   Na+             4.800e-01   3.048e-01    -0.319    -0.516    -0.197      1.60
   NaSO4-          4.081e-03   1.192e-03    -2.389    -2.924    -0.534     12.30
   NaHCO3          9.391e-04   1.316e-03    -3.027    -2.881     0.146     28.01
   NaOH            3.074e-16   3.560e-16   -15.512   -15.449     0.064     (0)  
O(0)          1.167e-13
   O2              5.833e-14   6.754e-14   -13.234   -13.170     0.064     35.45
S(-2)         0.000e+00
   HS-             0.000e+00   0.000e+00   -79.077   -79.347    -0.270     19.09
   H2S             0.000e+00   0.000e+00   -79.586   -79.522     0.064     49.41
   S-2             0.000e+00   0.000e+00   -82.107   -82.998    -0.891     (0)  
   (H2S)2          0.000e+00   0.000e+00  -159.922  -159.858     0.064     17.57
S(6)          2.930e-02
   MgSO4           1.823e-02   2.445e-02    -1.739    -1.612     0.127      3.16
   SO4-2           6.423e-03   7.792e-04    -2.192    -3.108    -0.916      9.94
   NaSO4-          4.081e-03   1.192e-03    -2.389    -2.924    -0.534     12.30
   CaSO4           3.745e-04   4.336e-04    -3.427    -3.363     0.064      9.14
   Mg(SO4)2-2      7.080e-05   1.438e-05    -4.150    -4.842    -0.692     80.99
   KSO4-           4.677e-05   1.383e-05    -4.330    -4.859    -0.529     16.37
   HSO4-           4.533e-07   3.070e-07    -6.344    -6.513    -0.169     40.68
   CaHSO4+         9.179e-09   6.216e-09    -8.037    -8.206    -0.169     (0)  

------------------------------Saturation indices-------------------------------

  Phase               SI** log IAP   log K(413 K,   3 atm)

  Anhydrite        -0.03     -5.88   -5.85  CaSO4
  Aragonite         0.19     -9.68   -9.87  CaCO3
  Arcanite         -6.04     -7.58   -1.54  K2SO4
  Calcite           0.89     -9.68  -10.56  CaCO3
  CH4(g)          -79.79    -82.71   -2.92  CH4
  CO2(g)           -1.41     -3.48   -2.07  CO2
  Dolomite          2.66    -18.74  -21.40  CaMg(CO3)2
  Epsomite         -4.30     -5.32   -1.02  MgSO4:7H2O
  Gypsum           -0.78     -5.90   -5.12  CaSO4:2H2O
  H2(g)           -23.21    -26.22   -3.01  H2
  H2O(g)            0.53     -0.01   -0.54  H2O
  H2S(g)          -77.97    -86.15   -8.18  H2S
  Halite           -2.65     -1.02    1.64  NaCl
  Hexahydrite      -3.91     -5.32   -1.41  MgSO4:6H2O
  Kieserite        -2.19     -5.27   -3.08  MgSO4:H2O
  Mirabilite       -4.31     -4.22    0.08  Na2SO4:10H2O
  O2(g)           -10.11    -13.17   -3.06  O2
  Sulfur          -59.75    -56.81    2.94  S
  Sylvite          -4.05     -2.74    1.31  KCl
  Thenardite       -3.07     -4.14   -1.07  Na2SO4

**For a gas, SI = log10(fugacity). Fugacity = pressure * phi / 1 atm.
  For ideal gases, phi = 1.

Reaction step 9.

Using solution 1.	
Using temperature 1.	

-----------------------------Solution composition------------------------------

	Elements           Molality       Moles

	C                 2.237e-03   2.237e-03
	Ca                1.070e-02   1.070e-02
	Cl                5.660e-01   5.660e-01
	K                 1.060e-02   1.060e-02
	Mg                5.510e-02   5.510e-02
	Na                4.850e-01   4.850e-01
	S                 2.930e-02   2.930e-02

----------------------------Description of solution----------------------------

                                       pH  =   6.622      Charge balance
                                       pe  =   4.835      Adjusted to redox equilibrium
      Specific Conductance (ÂµS/cm, 160Â°C)  = 200506
                          Density (g/cmÂ³)  =   0.93473
                               Volume (L)  =   1.10872
                        Viscosity (mPa s)  =   0.18875
                        Activity of water  =   0.981
                 Ionic strength (mol/kgw)  =   6.326e-01
                       Mass of water (kg)  =   1.000e+00
                 Total alkalinity (eq/kg)  =   2.400e-03
                       Total CO2 (mol/kg)  =   2.237e-03
                         Temperature (Â°C)  = 160.00
                           Pressure (atm)  =  5.99
                  Electrical balance (eq)  =   2.000e-04
 Percent error, 100*(Cat-|An|)/(Cat+|An|)  =   0.02
                               Iterations  =   9
                                  Total H  = 1.110145e+02
                                  Total O  = 5.563013e+01

----------------------------Distribution of species----------------------------

                                               Log       Log       Log    mole V
   Species          Molality    Activity  Molality  Activity     Gamma   cmÂ³/mol

   OH-             2.268e-05   1.178e-05    -4.644    -4.929    -0.284     -9.99
   H+              3.449e-07   2.388e-07    -6.462    -6.622    -0.160      0.00
   H2O             5.551e+01   9.807e-01     1.744    -0.008     0.000     19.85
C(-4)         0.000e+00
   CH4             0.000e+00   0.000e+00   -85.149   -85.086     0.063     48.61
C(4)          2.237e-03
   NaHCO3          8.922e-04   1.247e-03    -3.050    -2.904     0.146     28.02
   HCO3-           5.299e-04   3.165e-04    -3.276    -3.500    -0.224     19.44
   CO2             4.967e-04   5.468e-04    -3.304    -3.262     0.042     46.52
   MgHCO3+         2.294e-04   1.245e-04    -3.639    -3.905    -0.265      4.61
   CaHCO3+         8.421e-05   5.195e-05    -4.075    -4.284    -0.210     10.80
   MgCO3           1.866e-06   2.159e-06    -5.729    -5.666     0.063    -16.91
   CaCO3           1.844e-06   2.133e-06    -5.734    -5.671     0.063    -14.24
   CO3-2           3.673e-07   4.673e-08    -6.435    -7.330    -0.895    -17.82
   (CO2)2          3.758e-08   4.348e-08    -7.425    -7.362     0.063     93.04
Ca            1.070e-02
   Ca+2            1.034e-02   1.520e-03    -1.985    -2.818    -0.833    -19.78
   CaSO4           2.699e-04   3.122e-04    -3.569    -3.506     0.063      9.24
   CaHCO3+         8.421e-05   5.195e-05    -4.075    -4.284    -0.210     10.80
   CaCO3           1.844e-06   2.133e-06    -5.734    -5.671     0.063    -14.24
   CaHSO4+         1.800e-08   1.189e-08    -7.745    -7.925    -0.180     (0)  
   CaOH+           1.568e-09   1.036e-09    -8.805    -8.985    -0.180     (0)  
Cl            5.660e-01
   Cl-             5.660e-01   3.051e-01    -0.247    -0.516    -0.268     11.82
   HCl             5.859e-09   1.089e-08    -8.232    -7.963     0.269     (0)  
H(0)          5.892e-27
   H2              2.946e-27   3.408e-27   -26.531   -26.468     0.063     28.56
K             1.060e-02
   K+              1.056e-02   5.608e-03    -1.976    -2.251    -0.275     11.69
   KSO4-           4.180e-05   1.150e-05    -4.379    -4.939    -0.561      9.29
Mg            5.510e-02
   Mg+2            3.508e-02   6.111e-03    -1.455    -2.214    -0.759    -26.59
   MgSO4           1.911e-02   2.557e-02    -1.719    -1.592     0.127      2.06
   MgOH+           6.348e-04   4.012e-04    -3.197    -3.397    -0.199     (0)  
   MgHCO3+         2.294e-04   1.245e-04    -3.639    -3.905    -0.265      4.61
   Mg(SO4)2-2      4.993e-05   9.305e-06    -4.302    -5.031    -0.730     88.84
   MgCO3           1.866e-06   2.159e-06    -5.729    -5.666     0.063    -16.91
Na            4.850e-01
   Na+             4.796e-01   2.952e-01    -0.319    -0.530    -0.211      1.86
   NaSO4-          4.483e-03   1.218e-03    -2.348    -2.914    -0.566      7.87
   NaHCO3          8.922e-04   1.247e-03    -3.050    -2.904     0.146     28.02
   NaOH            3.004e-16   3.475e-16   -15.522   -15.459     0.063     (0)  
O(0)          5.776e-10
   O2              2.888e-10   3.341e-10    -9.539    -9.476     0.063     36.42
S(-2)         0.000e+00
   HS-             0.000e+00   0.000e+00   -81.293   -81.577    -0.284     17.15
   H2S             0.000e+00   0.000e+00   -81.529   -81.466     0.063     51.16
   S-2             0.000e+00   0.000e+00   -84.170   -85.108    -0.937     (0)  
   (H2S)2          0.000e+00   0.000e+00  -163.836  -163.773     0.063     12.50
S(6)          2.930e-02
   MgSO4           1.911e-02   2.557e-02    -1.719    -1.592     0.127      2.06
   SO4-2           5.298e-03   5.774e-04    -2.276    -3.238    -0.963      4.31
   NaSO4-          4.483e-03   1.218e-03    -2.348    -2.914    -0.566      7.87
   CaSO4           2.699e-04   3.122e-04    -3.569    -3.506     0.063      9.24
   Mg(SO4)2-2      4.993e-05   9.305e-06    -4.302    -5.031    -0.730     88.84
   KSO4-           4.180e-05   1.150e-05    -4.379    -4.939    -0.561      9.29
   HSO4-           9.823e-07   6.488e-07    -6.008    -6.188    -0.180     39.31
   CaHSO4+         1.800e-08   1.189e-08    -7.745    -7.925    -0.180     (0)  

------------------------------Saturation indices-------------------------------

  Phase               SI** log IAP   log K(433 K,   6 atm)

  Anhydrite         0.10     -6.06   -6.15  CaSO4
  Aragonite         0.13    -10.15  -10.28  CaCO3
  Arcanite         -6.11     -7.74   -1.63  K2SO4
  Calcite           0.95    -10.15  -11.10  CaCO3
  CH4(g)          -82.22    -85.09   -2.87  CH4
  CO2(g)           -1.18     -3.26   -2.08  CO2
  Dolomite          2.78    -19.69  -22.47  CaMg(CO3)2
  Epsomite         -4.61     -5.51   -0.90  MgSO4:7H2O
  Gypsum           -0.80     -6.07   -5.27  CaSO4:2H2O
  H2(g)           -23.52    -26.47   -2.95  H2
  H2O(g)            0.76     -0.01   -0.77  H2O
  H2S(g)          -79.90    -88.20   -8.29  H2S
  Halite           -2.69     -1.05    1.65  NaCl
  Hexahydrite      -4.12     -5.50   -1.38  MgSO4:6H2O
  Kieserite        -1.73     -5.46   -3.73  MgSO4:H2O
  Mirabilite       -4.11     -4.38   -0.27  Na2SO4:10H2O
  O2(g)            -6.46     -9.48   -3.01  O2
  Sulfur          -61.26    -58.55    2.71  S
  Sylvite          -4.13     -2.77    1.36  KCl
  Thenardite       -3.02     -4.30   -1.28  Na2SO4

**For a gas, SI = log10(fugacity). Fugacity = pressure * phi / 1 atm.
  For ideal gases, phi = 1.

Reaction step 10.

Using solution 1.	
Using temperature 1.	

-----------------------------Solution composition------------------------------

	Elements           Molality       Moles

	C                 2.237e-03   2.237e-03
	Ca                1.070e-02   1.070e-02
	Cl                5.660e-01   5.660e-01
	K                 1.060e-02   1.060e-02
	Mg                5.510e-02   5.510e-02
	Na                4.850e-01   4.850e-01
	S                 2.930e-02   2.930e-02

----------------------------Description of solution----------------------------

                                       pH  =   6.465      Charge balance
                                       pe  =   4.450      Adjusted to redox equilibrium
      Specific Conductance (ÂµS/cm, 180Â°C)  = 216824
                          Density (g/cmÂ³)  =   0.91544
                               Volume (L)  =   1.13207
                        Viscosity (mPa s)  =   0.16713
                        Activity of water  =   0.981
                 Ionic strength (mol/kgw)  =   6.297e-01
                       Mass of water (kg)  =   1.000e+00
                 Total alkalinity (eq/kg)  =   2.400e-03
                       Total CO2 (mol/kg)  =   2.237e-03
                         Temperature (Â°C)  = 180.00
                           Pressure (atm)  =  9.72
                  Electrical balance (eq)  =   2.000e-04
 Percent error, 100*(Cat-|An|)/(Cat+|An|)  =   0.02
                               Iterations  =  14
                                  Total H  = 1.110145e+02
                                  Total O  = 5.563013e+01

----------------------------Distribution of species----------------------------

                                               Log       Log       Log    mole V
   Species          Molality    Activity  Molality  Activity     Gamma   cmÂ³/mol

   OH-             2.239e-05   1.120e-05    -4.650    -4.951    -0.301    -13.99
   H+              5.054e-07   3.430e-07    -6.296    -6.465    -0.168      0.00
   H2O             5.551e+01   9.807e-01     1.744    -0.008     0.000     20.31
C(-4)         0.000e+00
   CH4             0.000e+00   0.000e+00   -82.326   -82.263     0.063     52.85
C(4)          2.237e-03
   CO2             7.551e-04   8.309e-04    -3.122    -3.080     0.042     50.95
   NaHCO3          7.519e-04   1.050e-03    -3.124    -2.979     0.145     28.04
   HCO3-           3.824e-04   2.219e-04    -3.417    -3.654    -0.236     15.12
   MgHCO3+         2.060e-04   1.080e-04    -3.686    -3.967    -0.281      3.55
   CaHCO3+         1.396e-04   8.385e-05    -3.855    -4.076    -0.221     10.47
   MgCO3           7.613e-07   8.801e-07    -6.118    -6.055     0.063    -16.80
   CaCO3           4.634e-07   5.357e-07    -6.334    -6.271     0.063    -14.13
   CO3-2           1.422e-07   1.611e-08    -6.847    -7.793    -0.946    -26.40
   (CO2)2          9.033e-08   1.044e-07    -7.044    -6.981     0.063    101.91
Ca            1.070e-02
   Ca+2            1.037e-02   1.348e-03    -1.984    -2.870    -0.886    -21.40
   CaSO4           1.858e-04   2.148e-04    -3.731    -3.668     0.063      9.33
   CaHCO3+         1.396e-04   8.385e-05    -3.855    -4.076    -0.221     10.47
   CaCO3           4.634e-07   5.357e-07    -6.334    -6.271     0.063    -14.13
   CaHSO4+         3.290e-08   2.113e-08    -7.483    -7.675    -0.192     (0)  
   CaOH+           9.954e-10   6.394e-10    -9.002    -9.194    -0.192     (0)  
Cl            5.660e-01
   Cl-             5.660e-01   2.940e-01    -0.247    -0.532    -0.284      8.22
   HCl             7.187e-09   1.332e-08    -8.143    -7.875     0.268     (0)  
H(0)          6.522e-26
   H2              3.261e-26   3.770e-26   -25.487   -25.424     0.063     28.55
K             1.060e-02
   K+              1.056e-02   5.402e-03    -1.976    -2.267    -0.291     12.04
   KSO4-           3.806e-05   9.638e-06    -4.420    -5.016    -0.596     -0.18
Mg            5.510e-02
   Mg+2            3.444e-02   5.343e-03    -1.463    -2.272    -0.809    -28.66
   MgSO4           1.952e-02   2.609e-02    -1.709    -1.584     0.126      0.31
   MgOH+           8.975e-04   5.529e-04    -3.047    -3.257    -0.210     (0)  
   MgHCO3+         2.060e-04   1.080e-04    -3.686    -3.967    -0.281      3.55
   Mg(SO4)2-2      3.440e-05   5.816e-06    -4.463    -5.235    -0.772     98.12
   MgCO3           7.613e-07   8.801e-07    -6.118    -6.055     0.063    -16.80
Na            4.850e-01
   Na+             4.791e-01   2.847e-01    -0.320    -0.546    -0.226      2.17
   NaSO4-          5.126e-03   1.283e-03    -2.290    -2.892    -0.602      1.81
   NaHCO3          7.519e-04   1.050e-03    -3.124    -2.979     0.145     28.04
   NaOH            2.752e-16   3.182e-16   -15.560   -15.497     0.063     (0)  
O(0)          3.938e-09
   O2              1.969e-09   2.276e-09    -8.706    -8.643     0.063     37.64
S(-2)         0.000e+00
   H2S             0.000e+00   0.000e+00   -78.218   -78.155     0.063     53.22
   HS-             0.000e+00   0.000e+00   -78.264   -78.565    -0.301     14.43
   S-2             0.000e+00   0.000e+00   -80.993   -81.983    -0.990     (0)  
   (H2S)2          0.000e+00   0.000e+00  -157.262  -157.199     0.063      5.60
S(6)          2.930e-02
   MgSO4           1.952e-02   2.609e-02    -1.709    -1.584     0.126      0.31
   NaSO4-          5.126e-03   1.283e-03    -2.290    -2.892    -0.602      1.81
   SO4-2           4.356e-03   4.204e-04    -2.361    -3.376    -1.015     -3.38
   CaSO4           1.858e-04   2.148e-04    -3.731    -3.668     0.063      9.33
   KSO4-           3.806e-05   9.638e-06    -4.420    -5.016    -0.596     -0.18
   Mg(SO4)2-2      3.440e-05   5.816e-06    -4.463    -5.235    -0.772     98.12
   HSO4-           2.023e-06   1.299e-06    -5.694    -5.886    -0.192     37.34
   CaHSO4+         3.290e-08   2.113e-08    -7.483    -7.675    -0.192     (0)  

------------------------------Saturation indices-------------------------------

  Phase               SI** log IAP   log K(453 K,  10 atm)

  Anhydrite         0.21     -6.25   -6.45  CaSO4
  Aragonite         0.07    -10.66  -10.73  CaCO3
  Arcanite         -6.16     -7.91   -1.75  K2SO4
  Calcite           1.01    -10.66  -11.67  CaCO3
  CH4(g)          -79.45    -82.26   -2.81  CH4
  CO2(g)           -1.00     -3.08   -2.08  CO2
  Dolomite          2.87    -20.73  -23.60  CaMg(CO3)2
  Epsomite         -4.94     -5.71   -0.77  MgSO4:7H2O
  Gypsum           -0.84     -6.26   -5.43  CaSO4:2H2O
  H2(g)           -22.54    -25.42   -2.88  H2
  H2O(g)            0.97     -0.01   -0.97  H2O
  H2S(g)          -76.60    -85.03   -8.43  H2S
  Halite           -2.73     -1.08    1.65  NaCl
  Hexahydrite      -4.35     -5.70   -1.35  MgSO4:6H2O
  Kieserite        -1.23     -5.66   -4.43  MgSO4:H2O
  Mirabilite       -3.80     -4.55   -0.75  Na2SO4:10H2O
  O2(g)            -5.69     -8.64   -2.95  O2
  Sulfur          -58.82    -56.33    2.49  S
  Sylvite          -4.21     -2.80    1.41  KCl
  Thenardite       -2.94     -4.47   -1.52  Na2SO4

**For a gas, SI = log10(fugacity). Fugacity = pressure * phi / 1 atm.
  For ideal gases, phi = 1.

Reaction step 11.

Using solution 1.	
Using temperature 1.	

-----------------------------Solution composition------------------------------

	Elements           Molality       Moles

	C                 2.237e-03   2.237e-03
	Ca                1.070e-02   1.070e-02
	Cl                5.660e-01   5.660e-01
	K                 1.060e-02   1.060e-02
	Mg                5.510e-02   5.510e-02
	Na                4.850e-01   4.850e-01
	S                 2.930e-02   2.930e-02

----------------------------Description of solution----------------------------

                                       pH  =   6.308      Charge balance
                                       pe  =   3.866      Adjusted to redox equilibrium
      Specific Conductance (ÂµS/cm, 200Â°C)  = 230773
[...]
C(4)          8.505e-03
   MgHCO3+         3.680e-03   2.011e-03    -2.434    -2.696    -0.262      5.93
   HCO3-           3.166e-03   1.942e-03    -2.500    -2.712    -0.212     29.92
   NaHCO3          5.368e-04   2.037e-03    -3.270    -2.691     0.579     28.00
   CaHCO3+         4.845e-04   3.084e-04    -3.315    -3.511    -0.196     10.04
   MgCO3           4.336e-04   7.743e-04    -3.363    -3.111     0.252    -17.09
   CaCO3           1.073e-04   1.917e-04    -3.969    -3.717     0.252    -14.60
   CO3-2           6.470e-05   9.168e-06    -4.189    -5.038    -0.849      3.51
   CO2             3.193e-05   4.682e-05    -4.496    -4.330     0.166     34.43
   (CO2)2          2.253e-11   4.024e-11   -10.647   -10.395     0.252     68.87
Ca            4.069e-02
   Ca+2            3.778e-02   1.245e-02    -1.423    -1.905    -0.482    -15.70
   CaSO4           2.318e-03   4.140e-03    -2.635    -2.383     0.252      7.50
   CaHCO3+         4.845e-04   3.084e-04    -3.315    -3.511    -0.196     10.04
   CaCO3           1.073e-04   1.917e-04    -3.969    -3.717     0.252    -14.60
   CaOH+           1.631e-07   1.927e-07    -6.788    -6.715     0.072     (0)  
   CaHSO4+         2.288e-10   2.704e-10    -9.640    -9.568     0.072     (0)  
Cl            2.152e+00
   Cl-             2.152e+00   1.247e+00     0.333     0.096    -0.237     19.43
   HCl             3.618e-10   4.268e-09    -9.442    -8.370     1.072     (0)  
H(0)          0.000e+00
   H2              0.000e+00   1.686e-40   -40.025   -39.773     0.252     28.61
K             4.031e-02
   K+              3.937e-02   2.220e-02    -1.405    -1.654    -0.249     10.58
   KSO4-           9.378e-04   1.526e-04    -3.028    -3.816    -0.788     37.88
Mg            2.095e-01
   Mg+2            1.908e-01   8.850e-02    -0.720    -1.053    -0.334    -19.36
   MgSO4           1.359e-02   4.335e-02    -1.867    -1.363     0.504     -0.83
   MgHCO3+         3.680e-03   2.011e-03    -2.434    -2.696    -0.262      5.93
   Mg(SO4)2-2      1.011e-03   2.671e-04    -2.995    -3.573    -0.578     54.04
   MgCO3           4.336e-04   7.743e-04    -3.363    -3.111     0.252    -17.09
   MgOH+           4.583e-05   2.997e-05    -4.339    -4.523    -0.184     (0)  
Na            1.844e+00
   Na+             1.770e+00   1.569e+00     0.248     0.196    -0.052      0.32
   NaSO4-          7.391e-02   1.146e-02    -1.131    -1.941    -0.809     29.18
   NaHCO3          5.368e-04   2.037e-03    -3.270    -2.691     0.579     28.00
   NaOH            8.294e-17   1.481e-16   -16.081   -15.829     0.252     (0)  
O(0)          1.410e-13
   O2              7.050e-14   1.259e-13   -13.152   -12.900     0.252     30.40
S(-2)         0.000e+00
   HS-             0.000e+00   0.000e+00  -123.154  -123.441    -0.287     22.07
   H2S             0.000e+00   0.000e+00  -124.754  -124.502     0.252     36.27
   S-2             0.000e+00   0.000e+00  -127.458  -128.356    -0.898     (0)  
   (H2S)2          0.000e+00   0.000e+00  -250.534  -250.282     0.252     30.09
S(6)          1.114e-01
   NaSO4-          7.391e-02   1.146e-02    -1.131    -1.941    -0.809     29.18
   SO4-2           1.864e-02   1.871e-03    -1.730    -2.728    -0.998     20.66
   MgSO4           1.359e-02   4.335e-02    -1.867    -1.363     0.504     -0.83
   CaSO4           2.318e-03   4.140e-03    -2.635    -2.383     0.252      7.50
   Mg(SO4)2-2      1.011e-03   2.671e-04    -2.995    -3.573    -0.578     54.04
   KSO4-           9.378e-04   1.526e-04    -3.028    -3.816    -0.788     37.88
   HSO4-           1.529e-09   1.807e-09    -8.816    -8.743     0.072     41.53
   CaHSO4+         2.288e-10   2.704e-10    -9.640    -9.568     0.072     (0)  

------------------------------Saturation indices-------------------------------

  Phase               SI** log IAP   log K(298 K,   1 atm)

  Anhydrite        -0.36     -4.63   -4.28  CaSO4
  Aragonite         1.39     -6.94   -8.34  CaCO3
  Arcanite         -4.16     -6.04   -1.88  K2SO4
  Calcite           1.54     -6.94   -8.48  CaCO3
  CH4(g)         -123.56   -126.37   -2.80  CH4
  CO2(g)           -2.86     -4.33   -1.47  CO2
  Dolomite          4.05    -13.03  -17.08  CaMg(CO3)2
  Epsomite         -2.27     -4.01   -1.74  MgSO4:7H2O
  Gypsum           -0.12     -4.70   -4.58  CaSO4:2H2O
  H2(g)           -36.67    -39.77   -3.10  H2
  H2O(g)           -1.54     -0.03    1.50  H2O
  H2S(g)         -123.51   -131.44   -7.94  H2S
  Halite           -1.28      0.29    1.57  NaCl
  Hexahydrite      -2.41     -3.98   -1.57  MgSO4:6H2O
  Kieserite        -2.65     -3.81   -1.16  MgSO4:H2O
  Mirabilite       -1.43     -2.67   -1.24  Na2SO4:10H2O
  O2(g)           -10.01    -12.90   -2.89  O2
  Sulfur          -92.76    -87.88    4.88  S
  Sylvite          -2.46     -1.56    0.90  KCl
  Thenardite       -2.04     -2.34   -0.30  Na2SO4

**For a gas, SI = log10(fugacity). Fugacity = pressure * phi / 1 atm.
  For ideal gases, phi = 1.

Reaction step 10.

Using solution 1.	
Using reaction 1.	

Reaction 1.	

	  4.545e+01 moles of the following reaction have been added:

	                 Relative
	Reactant            moles

	H2O                 -1.00000

	                 Relative
	Element             moles
	H                   -2.00000
	O                   -1.00000

-----------------------------Solution composition------------------------------

	Elements           Molality       Moles

	C                 1.235e-02   2.237e-03
	Ca                5.909e-02   1.070e-02
	Cl                3.126e+00   5.660e-01
	K                 5.853e-02   1.060e-02
	Mg                3.043e-01   5.510e-02
	Na                2.678e+00   4.850e-01
	S                 1.618e-01   2.930e-02

----------------------------Description of solution----------------------------

                                       pH  =   7.987      Charge balance
                                       pe  =  10.372      Adjusted to redox equilibrium
      Specific Conductance (ÂµS/cm,  25Â°C)  = 187307
                          Density (g/cmÂ³)  =   1.12689
                               Volume (L)  =   0.19296
                        Viscosity (mPa s)  =   1.37709
                        Activity of water  =   0.894
                 Ionic strength (mol/kgw)  =   3.646e+00
                       Mass of water (kg)  =   1.811e-01
                 Total alkalinity (eq/kg)  =   1.325e-02
                       Total CO2 (mol/kg)  =   1.235e-02
                         Temperature (Â°C)  =  25.00
                  Electrical balance (eq)  =   2.000e-04
 Percent error, 100*(Cat-|An|)/(Cat+|An|)  =   0.02
                               Iterations  =  18
                                  Total H  = 2.010542e+01
                                  Total O  = 1.017558e+01

----------------------------Distribution of species----------------------------

                                               Log       Log       Log    mole V
   Species          Molality    Activity  Molality  Activity     Gamma   cmÂ³/mol

   OH-             1.771e-06   8.780e-07    -5.752    -6.057    -0.305      1.64
   H+              1.444e-08   1.030e-08    -7.840    -7.987    -0.147      0.00
   H2O             5.551e+01   8.938e-01     1.744    -0.049     0.000     18.07
C(-4)         0.000e+00
   CH4             0.000e+00   0.000e+00  -127.113  -126.749     0.365     35.46
C(4)          1.235e-02
   MgHCO3+         7.431e-03   3.922e-03    -2.129    -2.406    -0.278      5.96
   HCO3-           2.770e-03   1.662e-03    -2.557    -2.779    -0.222     31.61
   CaHCO3+         8.621e-04   5.384e-04    -3.064    -3.269    -0.204     10.05
   MgCO3           6.287e-04   1.456e-03    -3.202    -2.837     0.365    -17.09
   NaHCO3          4.356e-04   3.004e-03    -3.361    -2.522     0.839     28.00
   CaCO3           1.393e-04   3.226e-04    -3.856    -3.491     0.365    -14.60
   CO3-2           5.843e-05   7.563e-06    -4.233    -5.121    -0.888      5.21
   CO2             2.475e-05   4.307e-05    -4.606    -4.366     0.241     34.43
   (CO2)2          1.471e-11   3.405e-11   -10.832   -10.468     0.365     68.87
Ca            5.909e-02
   Ca+2            5.558e-02   2.539e-02    -1.255    -1.595    -0.340    -15.21
   CaSO4           2.502e-03   5.794e-03    -2.602    -2.237     0.365      7.50
   CaHCO3+         8.621e-04   5.384e-04    -3.064    -3.269    -0.204     10.05
   CaCO3           1.393e-04   3.226e-04    -3.856    -3.491     0.365    -14.60
   CaOH+           2.187e-07   3.656e-07    -6.660    -6.437     0.223     (0)  
   CaHSO4+         2.348e-10   3.924e-10    -9.629    -9.406     0.223     (0)  
Cl            3.126e+00
   Cl-             3.126e+00   1.818e+00     0.495     0.260    -0.235     19.69
   HCl             1.812e-10   6.455e-09    -9.742    -8.190     1.552     (0)  
H(0)          0.000e+00
   H2              0.000e+00   1.356e-40   -40.232   -39.868     0.365     28.61
K             5.853e-02
   K+              5.720e-02   3.216e-02    -1.243    -1.493    -0.250     11.09
   KSO4-           1.332e-03   1.516e-04    -2.876    -3.819    -0.944     39.78
Mg            3.043e-01
   Mg+2            2.824e-01   2.017e-01    -0.549    -0.695    -0.146    -18.82
   MgSO4           1.264e-02   6.776e-02    -1.898    -1.169     0.729     -0.83
   MgHCO3+         7.431e-03   3.922e-03    -2.129    -2.406    -0.278      5.96
   Mg(SO4)2-2      1.019e-03   2.863e-04    -2.992    -3.543    -0.551     56.03
   MgCO3           6.287e-04   1.456e-03    -3.202    -2.837     0.365    -17.09
   MgOH+           9.881e-05   6.353e-05    -4.005    -4.197    -0.192     (0)  
Na            2.678e+00
   Na+             2.550e+00   2.704e+00     0.407     0.432     0.025      0.67
   NaSO4-          1.276e-01   1.355e-02    -0.894    -1.868    -0.974     33.22
   NaHCO3          4.356e-04   3.004e-03    -3.361    -2.522     0.839     28.00
   NaOH            1.025e-16   2.374e-16   -15.989   -15.625     0.365     (0)  
O(0)          1.564e-13
   O2              7.819e-14   1.810e-13   -13.107   -12.742     0.365     30.40
S(-2)         0.000e+00
   HS-             0.000e+00   0.000e+00  -123.600  -123.904    -0.305     22.37
   H2S             0.000e+00   0.000e+00  -125.314  -124.950     0.365     36.27
   S-2             0.000e+00   0.000e+00  -127.894  -128.835    -0.942     (0)  
   (H2S)2          0.000e+00   0.000e+00  -251.542  -251.177     0.365     30.09
S(6)          1.618e-01
   NaSO4-          1.276e-01   1.355e-02    -0.894    -1.868    -0.974     33.22
   SO4-2           1.570e-02   1.283e-03    -1.804    -2.892    -1.088     21.88
   MgSO4           1.264e-02   6.776e-02    -1.898    -1.169     0.729     -0.83
   CaSO4           2.502e-03   5.794e-03    -2.602    -2.237     0.365      7.50
   KSO4-           1.332e-03   1.516e-04    -2.876    -3.819    -0.944     39.78
   Mg(SO4)2-2      1.019e-03   2.863e-04    -2.992    -3.543    -0.551     56.03
   HSO4-           7.689e-10   1.285e-09    -9.114    -8.891     0.223     41.73
   CaHSO4+         2.348e-10   3.924e-10    -9.629    -9.406     0.223     (0)  

------------------------------Saturation indices-------------------------------

  Phase               SI** log IAP   log K(298 K,   1 atm)

  Anhydrite        -0.21     -4.49   -4.28  CaSO4
  Aragonite         1.62     -6.72   -8.34  CaCO3
  Arcanite         -4.00     -5.88   -1.88  K2SO4
  Calcite           1.76     -6.72   -8.48  CaCO3
  CH4(g)         -123.95   -126.75   -2.80  CH4
  CO2(g)           -2.90     -4.37   -1.47  CO2
  Dolomite          4.55    -12.53  -17.08  CaMg(CO3)2
  Epsomite         -2.19     -3.93   -1.74  MgSO4:7H2O
  Gypsum           -0.00     -4.58   -4.58  CaSO4:2H2O
  H2(g)           -36.77    -39.87   -3.10  H2
  H2O(g)           -1.55     -0.05    1.50  H2O
  H2S(g)         -123.96   -131.89   -7.94  H2S
  Halite           -0.88      0.69    1.57  NaCl
  Hexahydrite      -2.31     -3.88   -1.57  MgSO4:6H2O
  Kieserite        -2.47     -3.64   -1.16  MgSO4:H2O
  Mirabilite       -1.28     -2.52   -1.24  Na2SO4:10H2O
  O2(g)            -9.85    -12.74   -2.89  O2
  Sulfur          -93.11    -88.23    4.88  S
  Sylvite          -2.13     -1.23    0.90  KCl
  Thenardite       -1.73     -2.03   -0.30  Na2SO4

**For a gas, SI = log10(fugacity). Fugacity = pressure * phi / 1 atm.
  For ideal gases, phi = 1.

Reaction step 11.

Using solution 1.	
Using reaction 1.	

Reaction 1.	

	  5.000e+01 moles of the following reaction have been added:

	                 Relative
	Reactant            moles

	H2O                 -1.00000

	                 Relative
	Element             moles
	H                   -2.00000
	O                   -1.00000

-----------------------------Solution composition------------------------------

	Elements           Molality       Moles

	C                 2.255e-02   2.237e-03
	Ca                1.079e-01   1.070e-02
	Cl                5.706e+00   5.660e-01
	K                 1.069e-01   1.060e-02
	Mg                5.554e-01   5.510e-02
	Na                4.889e+00   4.850e-01
	S                 2.954e-01   2.930e-02

----------------------------Description of solution----------------------------

                                       pH  =   8.026      Charge balance
                                       pe  =  10.430      Adjusted to redox equilibrium
      Specific Conductance (ÂµS/cm,  25Â°C)  = 256339
                          Density (g/cmÂ³)  =   1.21214
                               Volume (L)  =   0.11183
                        Viscosity (mPa s)  =   2.14415
                        Activity of water  =   0.807
                 Ionic strength (mol/kgw)  =   6.642e+00
                       Mass of water (kg)  =   9.920e-02
                 Total alkalinity (eq/kg)  =   2.419e-02
                       Total CO2 (mol/kg)  =   2.255e-02
                         Temperature (Â°C)  =  25.00
                  Electrical balance (eq)  =   2.000e-04
 Percent error, 100*(Cat-|An|)/(Cat+|An|)  =   0.02
                               Iterations  =  22
                                  Total H  = 1.101451e+01
                                  Total O  = 5.630128e+00

----------------------------Distribution of species----------------------------

                                               Log       Log       Log    mole V
   Species          Molality    Activity  Molality  Activity     Gamma   cmÂ³/mol

   OH-             1.861e-06   8.670e-07    -5.730    -6.062    -0.332      5.53
   H+              1.338e-08   9.417e-09    -7.874    -8.026    -0.153      0.00
   H2O             5.551e+01   8.066e-01     1.744    -0.093     0.000     18.07
C(-4)         0.000e+00
   CH4             0.000e+00   0.000e+00  -128.531  -127.867     0.664     35.46
C(4)          2.255e-02
   MgHCO3+         1.876e-02   9.410e-03    -1.727    -2.026    -0.300      6.00
   CaHCO3+         1.638e-03   9.956e-04    -2.786    -3.002    -0.216     10.08
   HCO3-           1.047e-03   6.080e-04    -2.980    -3.216    -0.236     35.64
   MgCO3           8.280e-04   3.822e-03    -3.082    -2.418     0.664    -17.09
   CaCO3           1.414e-04   6.528e-04    -3.849    -3.185     0.664    -14.60
   NaHCO3          9.883e-05   3.332e-03    -4.005    -2.477     1.528     28.00
   CO3-2           2.660e-05   3.028e-06    -4.575    -5.519    -0.944      8.84
   CO2             5.816e-06   1.596e-05    -5.235    -4.797     0.438     34.43
   (CO2)2          1.013e-12   4.676e-12   -11.994   -11.330     0.664     68.87
Ca            1.079e-01
   Ca+2            1.040e-01   1.283e-01    -0.983    -0.892     0.091    -14.03
   CaSO4           2.066e-03   9.534e-03    -2.685    -2.021     0.664      7.50
   CaHCO3+         1.638e-03   9.956e-04    -2.786    -3.002    -0.216     10.08
   CaCO3           1.414e-04   6.528e-04    -3.849    -3.185     0.664    -14.60
   CaOH+           4.095e-07   1.824e-06    -6.388    -5.739     0.649     (0)  
   CaHSO4+         1.325e-10   5.902e-10    -9.878    -9.229     0.649     (0)  
Cl            5.706e+00
   Cl-             5.706e+00   3.520e+00     0.756     0.547    -0.210     20.19
   HCl             1.701e-11   1.142e-08   -10.769    -7.942     2.827     (0)  
H(0)          0.000e+00
   H2              0.000e+00   0.000e+00   -40.726   -40.062     0.664     28.61
K             1.069e-01
   K+              1.051e-01   6.162e-02    -0.978    -1.210    -0.232     12.41
   KSO4-           1.719e-03   9.461e-05    -2.765    -4.024    -1.259     43.21
Mg            5.554e-01
   Mg+2            5.279e-01   1.323e+00    -0.277     0.121     0.399    -17.49
   MgHCO3+         1.876e-02   9.410e-03    -1.727    -2.026    -0.300      6.00
   MgSO4           6.791e-03   1.447e-01    -2.168    -0.840     1.328     -0.83
   MgCO3           8.280e-04   3.822e-03    -3.082    -2.418     0.664    -17.09
   MgOH+           6.551e-04   4.113e-04    -3.184    -3.386    -0.202     (0)  
   Mg(SO4)2-2      5.571e-04   1.991e-04    -3.254    -3.701    -0.447     59.82
Na            4.889e+00
   Na+             4.613e+00   8.195e+00     0.664     0.914     0.250      1.39
   NaSO4-          2.759e-01   1.337e-02    -0.559    -1.874    -1.314     42.29
   NaHCO3          9.883e-05   3.332e-03    -4.005    -2.477     1.528     28.00
   NaOH            1.539e-16   7.105e-16   -15.813   -15.148     0.664     (0)  
O(0)          1.562e-13
   O2              7.809e-14   3.605e-13   -13.107   -12.443     0.664     30.40
S(-2)         0.000e+00
   HS-             0.000e+00   0.000e+00  -124.697  -125.029    -0.332     23.01
   H2S             0.000e+00   0.000e+00  -126.777  -126.113     0.664     36.27
   S-2             0.000e+00   0.000e+00  -128.916  -129.921    -1.005     (0)  
   (H2S)2          0.000e+00   0.000e+00  -254.169  -253.505     0.664     30.09
S(6)          2.954e-01
   NaSO4-          2.759e-01   1.337e-02    -0.559    -1.874    -1.314     42.29
   SO4-2           7.787e-03   4.178e-04    -2.109    -3.379    -1.270     24.40
   MgSO4           6.791e-03   1.447e-01    -2.168    -0.840     1.328     -0.83
   CaSO4           2.066e-03   9.534e-03    -2.685    -2.021     0.664      7.50
   KSO4-           1.719e-03   9.461e-05    -2.765    -4.024    -1.259     43.21
   Mg(SO4)2-2      5.571e-04   1.991e-04    -3.254    -3.701    -0.447     59.82
   CaHSO4+         1.325e-10   5.902e-10    -9.878    -9.229     0.649     (0)  
   HSO4-           8.585e-11   3.825e-10   -10.066    -9.417     0.649     42.11

------------------------------Saturation indices-------------------------------

  Phase               SI** log IAP   log K(298 K,   1 atm)

  Anhydrite         0.01     -4.27   -4.28  CaSO4
  Aragonite         1.93     -6.41   -8.34  CaCO3
  Arcanite         -3.92     -5.80   -1.88  K2SO4
  Calcite           2.07     -6.41   -8.48  CaCO3
  CH4(g)         -125.07   -127.87   -2.80  CH4
  CO2(g)           -3.33     -4.80   -1.47  CO2
  Dolomite          5.28    -11.81  -17.08  CaMg(CO3)2
  Epsomite         -2.17     -3.91   -1.74  MgSO4:7H2O
  Gypsum            0.13     -4.46   -4.58  CaSO4:2H2O
  H2(g)           -36.96    -40.06   -3.10  H2
  H2O(g)           -1.60     -0.09    1.50  H2O
  H2S(g)         -125.12   -133.05   -7.94  H2S
  Halite           -0.11      1.46    1.57  NaCl
  Hexahydrite      -2.25     -3.82   -1.57  MgSO4:6H2O
  Kieserite        -2.19     -3.35   -1.16  MgSO4:H2O
  Mirabilite       -1.25     -2.49   -1.24  Na2SO4:10H2O
  O2(g)            -9.55    -12.44   -2.89  O2
  Sulfur          -94.08    -89.20    4.88  S
  Sylvite          -1.56     -0.66    0.90  KCl
  Thenardite       -1.25     -1.55   -0.30  Na2SO4

**For a gas, SI = log10(fugacity). Fugacity = pressure * phi / 1 atm.
  For ideal gases, phi = 1.

------------------
End of simulation.
------------------

------------------------------------
Reading input data for simulation 3.
------------------------------------

