   Input file: sit_edl
  Output file: sit_edl.out
Database file: ../database/sit.dat

------------------
Reading data base.
------------------

	SOLUTION_MASTER_SPECIES
	SIT
	SOLUTION_SPECIES
	PHASES
------------------------------------
Reading input data for simulation 1.
------------------------------------

	DATABASE ../database/sit.dat
	SELECTED_OUTPUT 101
	    file                 sit_edl_101.sel
	USER_PUNCH 101
	    headings Mu SC
	    start
	10 PUNCH STR_F$(MU, 20, 12)
	20 PUNCH STR_F$(SC, 20, 10)
	    end
	RATES
	Goethite
	start
	10 mole = 0
	20 If (m <= 0) and (SR("Goethite") < 1) Then GoTo 250
	30 S = 0.1 # average BET; suggested value in m2/g
	40 Mm = 106.847 # molar mass in g/mol
	50 If (SR("Goethite") > 1) Then GoTo 250
	60 knu = 1.14815E-08  * exp((-86500 / 8.314) * ((1 / TK) - (1 / 298.15)))
	80 k = knu
	90 theta = 1 # default value
	100 eta = 1 # default value
	110 rate = S * m * Mm *(m/m0)^0.67 * k * ((1 - SR("Goethite") ^ theta) ^ eta)
	120 GoTo 240
	130 knu = 1.14815E-08 * exp((-86500 / 8.314) * ((1 / TK) - (1 / 298.15)))
	150 kpre = (-1) * knu
	160 theta = 1
	170 eta =  1
	180 If (m <= 0) then GoTo 210
	190 rate = S * m * Mm *(m/m0)^0.67 * kpre * (ABS(1 - SR("Goethite") ^ theta) ^ eta)
	200 GoTo 240
	210 rate = -1e-10
	240 mole = rate * Time
	250 Save mole
	end
	SOLUTION_MASTER_SPECIES
	Ntg		Ntg	0	Ntg		28.0134
	SOLUTION_SPECIES
	Ntg = Ntg # N2
		log_k  0.0
	PHASES
	Ntg(g)
		Ntg = Ntg
		analytical_expression -58.453 1.81800e-3  3199  17.909 -27460
	CaMgSr(CO3)2
	CaMg0.97Sr0.03(MoO4)0.00011(Sb(OH)6)0.0000033(SeO3)0.00001(CO3)1.9998767 + 1.9998767H+  = 1.9998767HCO3- + 1.000Ca+2 + 0.97Mg+2 + 0.03Sr+2 + 0.00011 MoO4-2 + 0.0000033 Sb(OH)6- + 0.0000033e- + 0.00001 SeO3-2
	     log_k     2.754     
	     delta_h  -60.916    #kJ/mol        #78hel/del,92ajoh
	     analytical_expression -1.7923812E+3  -2.8963813E-1  9.9363286E+4  6.5115141E+2  -5.6008892E+6
	SURFACE_MASTER_SPECIES
	        Hfo_s  Hfo_sOH
	        Hfo_w  Hfo_wOH
	SURFACE_SPECIES
	Hfo_wOH = Hfo_wOH
	        log_k 0.0
	Hfo_sOH = Hfo_sOH
	        log_k 0.0
	Hfo_sOH + H+ = Hfo_sOH2+
		log_k	7.29
	Hfo_sOH = Hfo_sO- + H+
		log_k	-8.93
	Hfo_wOH + H+ = Hfo_wOH2+
		log_k	7.29
	Hfo_wOH = Hfo_wO- + H+
		log_k	-8.93
	Hfo_sOH + Ca+2 = Hfo_sOHCa+2
		log_k	4.97
	Hfo_wOH + Ca+2 = Hfo_wOCa+ + H+
		log_k	-5.85
	Hfo_wOH + Mg+2 = Hfo_wOMg+ + H+
		log_k	-4.6
	Hfo_sOH + Sr+2 = Hfo_sOHSr+2
		log_k	5.01
	Hfo_wOH + Sr+2 = Hfo_wOSr+ + H+
		log_k -6.58
	Hfo_wOH + Sr+2 + H2O = Hfo_wOSrOH + 2H+
		log_k -17.6
	Hfo_sOH + SO4-2 + H+ = Hfo_sSO4- + H2O
		log_k	7.78
	Hfo_wOH + SO4-2 + H+ = Hfo_wSO4- + H2O
		log_k	7.78
	Hfo_sOH + SO4-2 = Hfo_sOHSO4-2
		log_k	0.79
	Hfo_wOH + SO4-2 = Hfo_wOHSO4-2
		log_k	0.79
	Hfo_wOH + F- + H+ = Hfo_wF + H2O
		log_k	8.7
	Hfo_wOH + F- = Hfo_wOHF-
		log_k	1.6
	Hfo_wOH + CO3-2 + H+ = Hfo_wCO3- + H2O
		log_k	12.56
	Hfo_wOH + CO3-2 + 2H+= Hfo_wHCO3 + H2O
		log_k	20.62
	Hfo_sOH + MoO4-2 = Hfo_sOHMoO4-2
		log_k	3.14
	Hfo_wOH + MoO4-2 = Hfo_wOHMoO4-2
		log_k	3.14
	Hfo_sOH + MoO4-2 + H2O + 2H+ = Hfo_sOMo(OH)5
		log_k	17.8
	Hfo_wOH + MoO4-2 + H2O + 2H+ = Hfo_wOMo(OH)5
		log_k	17.8
	Hfo_sOH + H(SeO3)- = Hfo_sSeO3- + H2O
	     log_k	4.29
	Hfo_sOH + H(SeO3)- = Hfo_sOHSeO3-2 + H+
	     log_k	-3.23
	Hfo_wOH + H(SeO3)- = Hfo_wSeO3- + H2O
	     log_k	4.29
	Hfo_wOH + H(SeO3)- = Hfo_wOHSeO3-2 + H+
	     log_k	-3.23
	Hfo_sOH + SeO4-2 + H+ = Hfo_sOH2SeO4-
	     log_k 11.7
	Hfo_wOH + SeO4-2 + H+ = Hfo_wOH2SeO4-
	     log_k 11.7
	END
------------------
End of simulation.
------------------

------------------------------------
Reading input data for simulation 2.
------------------------------------

	SOLUTION 1
		ph 		7 charge
		redox	pe
		units	mol/kgw
		temp		25
		water 	1
	Mo	5.5e-06	#pHnatural ANC
	Sb	2e-8
	Se	1.3e-6	#pH=12.9
	Si 	4e-4
	K 	1e-4
	Al 	7e-6
	Na	1.7e-4
	S(6)	1e-4
	N(5)	1e-5
	END
-------------------------------------------
Beginning of initial solution calculations.
-------------------------------------------

Initial solution 1.	

-----------------------------Solution composition------------------------------

	Elements           Molality       Moles

	Al                7.000e-06   7.000e-06
	K                 1.000e-04   1.000e-04
	Mo                5.500e-06   5.500e-06
	N(5)              1.000e-05   1.000e-05
	Na                1.700e-04   1.700e-04
	S(6)              1.000e-04   1.000e-04
	Sb                2.000e-08   2.000e-08
	Se                1.300e-06   1.300e-06
	Si                4.000e-04   4.000e-04

----------------------------Description of solution----------------------------

                                       pH  =   8.788      Charge balance
                                       pe  =   4.000    
                        Activity of water  =   1.000
                 Ionic strength (mol/kgw)  =   3.765e-04
                       Mass of water (kg)  =   1.000e+00
                 Total alkalinity (eq/kg)  =   6.858e-05
                         Temperature (°C)  =  25.00
                  Electrical balance (eq)  =  -5.058e-17
 Percent error, 100*(Cat-|An|)/(Cat+|An|)  =  -0.00
                               Iterations  =  10
                         Gamma iterations  =   2
                      Osmotic coefficient  =   0.99314
                                  Total H  = 1.110190e+02
                                  Total O  = 5.551077e+01

----------------------------Distribution of species----------------------------

                                               Log       Log       Log    mole V
   Species          Molality    Activity  Molality  Activity     Gamma   cm³/mol

   OH-             6.272e-06   6.134e-06    -5.203    -5.212    -0.010     (0)  
   H+              1.667e-09   1.630e-09    -8.778    -8.788    -0.010      0.00
   H2O             5.551e+01   1.000e+00     1.744    -0.000     0.000     18.07
Al            7.000e-06
   Al(OH)4-        6.968e-06   6.816e-06    -5.157    -5.166    -0.010     (0)  
   Al(OH)3         3.131e-08   3.131e-08    -7.504    -7.504     0.000     (0)  
   NaAl(OH)4       1.969e-10   1.969e-10    -9.706    -9.706     0.000     (0)  
   Al(OH)2+        3.611e-11   3.532e-11   -10.442   -10.452    -0.010     (0)  
   Al(OH)+2        2.683e-14   2.456e-14   -13.571   -13.610    -0.038     (0)  
   AlH3SiO4+2      3.651e-15   3.342e-15   -14.438   -14.476    -0.038     (0)  
   Al+3            4.355e-18   3.568e-18   -17.361   -17.448    -0.087     (0)  
   Al(SO4)+        4.938e-19   4.830e-19   -18.306   -18.316    -0.010     (0)  
H(0)          4.420e-29
   H2              2.210e-29   2.210e-29   -28.656   -28.656     0.000     (0)  
K             1.000e-04
   K+              1.000e-04   9.781e-05    -4.000    -4.010    -0.010     (0)  
Mo            5.500e-06
   MoO4-2          5.500e-06   5.034e-06    -5.260    -5.298    -0.038     (0)  
   HMoO4-          1.081e-10   1.057e-10    -9.966    -9.976    -0.010     (0)  
   H2MoO4          1.889e-15   1.889e-15   -14.724   -14.724     0.000     (0)  
   Mo2O5(OH)+      2.982e-36   2.917e-36   -35.525   -35.535    -0.010     (0)  
   Mo7O24-6        0.000e+00   0.000e+00   -56.693   -57.039    -0.346     (0)  
   Mo7O23(OH)-5    0.000e+00   0.000e+00   -58.726   -58.967    -0.241     (0)  
   Mo7O22(OH)2-4   0.000e+00   0.000e+00   -62.100   -62.255    -0.154     (0)  
   Mo+3            0.000e+00   0.000e+00   -65.754   -65.840    -0.087     (0)  
   Mo7O21(OH)3-3   0.000e+00   0.000e+00   -67.186   -67.272    -0.087     (0)  
   Mo19O59-4       0.000e+00   0.000e+00  -202.995  -203.148    -0.154     (0)  
N(5)          1.000e-05
   NO3-            1.000e-05   9.781e-06    -5.000    -5.010    -0.010     (0)  
Na            1.700e-04
   Na+             1.700e-04   1.663e-04    -3.770    -3.779    -0.010     (0)  
   NaAl(OH)4       1.969e-10   1.969e-10    -9.706    -9.706     0.000     (0)  
O(0)          2.898e-35
   O2              1.449e-35   1.449e-35   -34.839   -34.839     0.000     (0)  
S(6)          1.000e-04
   SO4-2           1.000e-04   9.152e-05    -4.000    -4.038    -0.038     (0)  
   H(SO4)-         1.457e-11   1.425e-11   -10.837   -10.846    -0.010     (0)  
   Al(SO4)+        4.938e-19   4.830e-19   -18.306   -18.316    -0.010     (0)  
   HSO5-           0.000e+00   0.000e+00   -47.451   -47.461    -0.010     (0)  
   S2O8-2          0.000e+00   0.000e+00   -65.419   -65.457    -0.038     (0)  
Sb(3)         2.446e-18
   Sb(OH)3         2.444e-18   2.444e-18   -17.612   -17.612     0.000     (0)  
   Sb(OH)4-        2.320e-21   2.269e-21   -20.635   -20.644    -0.010     (0)  
   Sb(OH)2+        8.708e-26   8.518e-26   -25.060   -25.070    -0.010     (0)  
   Sb(OH)+2        3.899e-35   3.569e-35   -34.409   -34.447    -0.038     (0)  
   Sb+3            0.000e+00   0.000e+00   -44.619   -44.705    -0.087     (0)  
Sb(5)         2.000e-08
   Sb(OH)6-        2.000e-08   1.956e-08    -7.699    -7.709    -0.010     (0)  
   Sb(OH)5         1.674e-14   1.674e-14   -13.776   -13.776     0.000     (0)  
   Sb(OH)4+        1.533e-26   1.499e-26   -25.815   -25.824    -0.010     (0)  
   Sb12(OH)67-7    0.000e+00   0.000e+00   -97.261   -97.732    -0.471     (0)  
   Sb12(OH)66-6    0.000e+00   0.000e+00  -100.354  -100.700    -0.346     (0)  
   Sb12(OH)65-5    0.000e+00   0.000e+00  -104.417  -104.657    -0.240     (0)  
   Sb12(OH)64-4    0.000e+00   0.000e+00  -109.671  -109.825    -0.154     (0)  
Se(-2)        9.319e-39
   HSe-            9.319e-39   9.115e-39   -38.031   -38.040    -0.010     (0)  
   H2Se            0.000e+00   0.000e+00   -42.978   -42.978     0.000     (0)  
   Se-2            0.000e+00   0.000e+00   -44.124   -44.162    -0.038     (0)  
   Se2-2           0.000e+00   0.000e+00   -54.966   -55.005    -0.038     (0)  
   Se3-2           0.000e+00   0.000e+00   -66.479   -66.517    -0.038     (0)  
   Se4-2           0.000e+00   0.000e+00   -79.591   -79.630    -0.038     (0)  
Se(4)         1.297e-06
   SeO3-2          9.609e-07   8.795e-07    -6.017    -6.056    -0.038     (0)  
   H(SeO3)-        3.358e-07   3.284e-07    -6.474    -6.484    -0.010     (0)  
   H2(SeO3)        2.337e-13   2.337e-13   -12.631   -12.631     0.000     (0)  
Se(6)         3.298e-09
   SeO4-2          3.298e-09   3.018e-09    -8.482    -8.520    -0.038     (0)  
   H(SeO4)-        2.829e-16   2.767e-16   -15.548   -15.558    -0.010     (0)  
Si            4.000e-04
   H4(SiO4)        3.663e-04   3.663e-04    -3.436    -3.436     0.000     (0)  
   H3(SiO4)-       3.320e-05   3.248e-05    -4.479    -4.488    -0.010     (0)  
   Si2O2(OH)5-     2.661e-07   2.602e-07    -6.575    -6.585    -0.010     (0)  
   Si2O3(OH)4-2    2.196e-09   2.010e-09    -8.658    -8.697    -0.038     (0)  
   H2(SiO4)-2      1.091e-09   9.985e-10    -8.962    -9.001    -0.038     (0)  
   Si4O6(OH)6-2    1.859e-12   1.701e-12   -11.731   -11.769    -0.038     (0)  
   Si3O6(OH)3-3    6.939e-14   5.685e-14   -13.159   -13.245    -0.087     (0)  
   Si3O5(OH)5-3    5.512e-14   4.516e-14   -13.259   -13.345    -0.087     (0)  
   AlH3SiO4+2      3.651e-15   3.342e-15   -14.438   -14.476    -0.038     (0)  
   Si4O7(OH)6-4    2.885e-18   2.024e-18   -17.540   -17.694    -0.154     (0)  
   Si4O8(OH)4-4    2.292e-18   1.608e-18   -17.640   -17.794    -0.154     (0)  
   Si6O15-6        4.525e-30   2.039e-30   -29.344   -29.691    -0.346     (0)  

------------------------------Saturation indices-------------------------------

  Phase               SI** log IAP   log K(298 K,   1 atm)

  Al(cr)         -114.88    -29.45   85.43  Al
  Albite-high      -0.52      3.62    4.14  NaAlSi3O8
  Albite-low        0.88      3.62    2.74  NaAlSi3O8
  Analcime          0.24      6.88    6.64  Na0.99Al0.99Si2.01O6:H2O
  Arcanite        -10.21    -12.06   -1.85  K2SO4
  Beidellite-K      5.31      9.91    4.60  K0.34Al2.34Si3.66O10(OH)2
  Beidellite-Na     4.89      9.99    5.10  Na0.34Al2.34Si3.66O10(OH)2
  Boehmite          1.30      8.92    7.62  AlO(OH)
  Clinoptilolite_K  -0.54     -1.77   -1.23  K1.1(Si4.9Al1.1)O12:2.7H2O
  Clinoptilolite_Na  -1.43     -1.52   -0.09  Na1.1(Si4.9Al1.1)O12:3.5H2O
  Corundum         -0.47     17.83   18.30  Al2O3
  Cristobalite     -0.28     -3.44   -3.16  SiO2
  Diaspore          2.05      8.92    6.87  AlO(OH)
  Dickite           1.57     10.96    9.39  Al2Si2O5(OH)4
  Downeyite       -15.48    -23.63   -8.15  SeO2
  Gibbsite          1.18      8.92    7.74  Al(OH)3
  Glaserite       -40.16    -47.77   -7.61  Na2K6(SO4)4
  H2(g)           -25.58    -25.58    0.00  H2
  H2MoO4(s)        -9.70    -22.87  -13.17  H2MoO4
  H2O(g)           -1.50    -43.00  -41.50  H2O
  Halloysite        0.64     10.96   10.32  Al2Si2O5(OH)4
  HBeidellite-K     7.69      9.91    2.22  K0.34Al2.34Si3.66O10(OH)2:1.96H2O
  HBeidellite-Na    8.16      9.99    1.83  Na0.34Al2.34Si3.66O10(OH)2:3.84H2O
  Heulandite_Na     3.43      6.23    2.80  Na2.14Al2.14Si6.86O18:6.17H2O
  Illite-Al         5.63     18.65   13.02  K0.85Al2.85Si3.15O10(OH)2
  K(cr)           -57.50     -8.01   49.49  K
  K(NO3)(s)        -8.92     -9.02   -0.10  K(NO3)
  K(OH)(s)        -19.82      4.78   24.60  K(OH)
  K2O(s)          -74.55      9.56   84.11  K2O
  KAl(OH)4        -10.53     13.69   24.22  KAl(OH)4
  KAl(SO4)2(s)    -33.27    -29.53    3.74  KAl(SO4)2
  KAl(SO4)2:12H2O(s) -22.85    -29.53   -6.68  KAl(SO4)2:12H2O
  Kaolinite         4.46     10.96    6.50  Al2(Si2O5)(OH)4
  Mercallite      -15.44    -16.84   -1.40  KHSO4
  Merlinoite_K     -1.96      7.51    9.47  K1.04Al1.04Si1.96O6:1.69H2O
  Merlinoite_Na    -2.54      7.75   10.29  Na1.04Al1.04Si1.96O6:2.27H2O
  Microcline        3.34      3.39    0.05  KAlSi3O8
  Mirabilite      -10.37    -11.60   -1.23  Na2SO4:10H2O
  Mo(cr)          -80.02    -99.60  -19.58  Mo
  Mo3O8(s)        -30.64    -94.20  -63.56  Mo3O8
  MoO2(s)         -18.57    -48.45  -29.88  MoO2
  MoO3(s)         -10.89    -22.87  -11.98  MoO3
  Muscovite         8.20     21.22   13.02  KAl3Si3O10(OH)2
  N2(g)            54.98   -155.47 -210.45  N2
  Na(cr)          -53.67     -7.78   45.89  Na
  Na(NO3)(s)       -9.88     -8.79    1.09  Na(NO3)
  Na2O(cr)        -57.44     10.02   67.46  Na2O
  Natrolite        -1.77     17.54   19.31  Na2(Al2Si3)O10:2H2O
  O2(g)           -31.94    -34.84   -2.90  O2
  Paragonite        4.66     21.45   16.79  NaAl3Si3O10(OH)2
  Phillipsite_K     3.35      3.39    0.04  KAlSi3O8:3H2O
  Phillipsite_Na    2.17      3.62    1.45  NaAlSi3O8:3H2O
  Pyrophyllite      4.53      4.09   -0.44  Al2Si4O10(OH)2
  Quartz            0.30     -3.44   -3.74  SiO2
  Sanidine          2.81      3.39    0.58  KAlSi3O8
  Sb(cr)          -44.31    -55.98  -11.67  Sb
  Sb2O5(s)        -20.15    -27.55   -7.40  Sb2O5
  Se(s)           -13.63    -21.25   -7.62  Se
  SeO3(cr)        -46.46    -26.10   20.36  SeO3
  Si(cr)         -117.78    -54.59   63.19  Si
  SiO2(am)         -0.73     -3.44   -2.71  SiO2
  Thenardite      -11.24    -11.60   -0.36  Na2SO4
  Valentinite     -26.74    -35.22   -8.48  Sb2O3

**For a gas, SI = log10(fugacity). Fugacity = pressure * phi / 1 atm.
  For ideal gases, phi = 1.

------------------
End of simulation.
------------------

------------------------------------
Reading input data for simulation 3.
------------------------------------

	USE solution 1
	EQUILIBRIUM_PHASES 1
	Calcite		0 		0.67		dissolve_only	
	CaMgSr(CO3)2	0 		0.0285	#dissolve_only
	Aragonite 		0 		0.0496	dissolve_only
	Gypsum 		0 		0.0009	#dissolve_only
	Strontianite	0		0
	Ferrihydrite(am)	0		0.0018
	Gibbsite		0		0
	Brucite		0		0
	O2(g)             -0.7
	CO2(g)            -3.4
	SAVE solution 1
	END
-----------------------------------------
Beginning of batch-reaction calculations.
-----------------------------------------

Reaction step 1.

WARNING: Maximum iterations exceeded, 200

WARNING: Numerical method failed with this set of convergence parameters.

WARNING: Trying smaller step size, pe step size 10, 5 ... 

Using solution 1.	
Using pure phase assemblage 1.	

-------------------------------Phase assemblage--------------------------------

                                                      Moles in assemblage
Phase               SI  log IAP  log K(T, P)   Initial       Final       Delta

Aragonite         0.00    -8.31     -8.31    4.960e-02   4.929e-02  -3.141e-04
Brucite          -5.10    12.00     17.10    0.000e+00           0   0.000e+00
CO2(g)           -3.40   -21.55    -18.15    1.000e+01   1.000e+01  -4.981e-04
CaMgSr(CO3)2      0.00     2.75      2.75    2.850e-02   2.842e-02  -7.528e-05
Calcite           0.17    -8.31     -8.48    6.700e-01   6.700e-01   0.000e+00
Ferrihydrite(am)   -0.00     3.92      3.92    1.800e-03   1.800e-03  -1.210e-07
Gibbsite         -0.00     7.74      7.74    0.000e+00   6.884e-06   6.884e-06
Gypsum           -1.64    -6.25     -4.61    9.000e-04           0  -9.000e-04
O2(g)            -0.70    -3.60     -2.90    1.000e+01   1.000e+01  -2.518e-04
Strontianite     -1.79   -11.06     -9.27    0.000e+00           0   0.000e+00

-----------------------------Solution composition------------------------------

	Elements           Molality       Moles

	Al                1.156e-07   1.156e-07
	C                 9.627e-04   9.627e-04
	Ca                1.289e-03   1.289e-03
	Fe                1.211e-07   1.211e-07
	K                 1.000e-04   1.000e-04
	Mg                7.303e-05   7.303e-05
	Mo                5.508e-06   5.508e-06
	N                 1.000e-05   1.000e-05
	Na                1.700e-04   1.700e-04
	S                 1.000e-03   1.000e-03
	Sb                2.025e-08   2.025e-08
	Se                1.301e-06   1.301e-06
	Si                4.000e-04   4.000e-04
	Sr                2.259e-06   2.259e-06

----------------------------Description of solution----------------------------

                                       pH  =   8.153      Charge balance
                                       pe  =  12.445      Adjusted to redox equilibrium
                        Activity of water  =   1.000
                 Ionic strength (mol/kgw)  =   4.849e-03
                       Mass of water (kg)  =   1.000e+00
                 Total alkalinity (eq/kg)  =   9.760e-04
                       Total CO2 (mol/kg)  =   9.627e-04
                         Temperature (°C)  =  25.00
                  Electrical balance (eq)  =  -1.686e-15
 Percent error, 100*(Cat-|An|)/(Cat+|An|)  =  -0.00
                               Iterations  =  25 (226 overall)
                         Gamma iterations  =   4
                      Osmotic coefficient  =   0.94484
                                  Total H  = 1.110225e+02
                                  Total O  = 5.551905e+01

----------------------------Distribution of species----------------------------

                                               Log       Log       Log    mole V
   Species          Molality    Activity  Molality  Activity     Gamma   cm³/mol

   OH-             1.531e-06   1.422e-06    -5.815    -5.847    -0.032     (0)  
   H+              7.574e-09   7.034e-09    -8.121    -8.153    -0.032      0.00
   H2O             5.551e+01   9.999e-01     1.744    -0.000     0.000     18.07
Al            1.156e-07
   Al(OH)4-        1.135e-07   1.054e-07    -6.945    -6.977    -0.032     (0)  
   Al(OH)3         2.089e-09   2.089e-09    -8.680    -8.680     0.000     (0)  
   Al(OH)2+        1.095e-11   1.017e-11   -10.961   -10.993    -0.032     (0)  
   NaAl(OH)4       2.889e-12   2.889e-12   -11.539   -11.539     0.000     (0)  
   Al(OH)+2        4.103e-14   3.051e-14   -13.387   -13.516    -0.129     (0)  
   AlH3SiO4+2      5.962e-15   4.434e-15   -14.225   -14.353    -0.129     (0)  
   Al+3            3.725e-17   1.913e-17   -16.429   -16.718    -0.289     (0)  
   Al(SO4)+        1.992e-17   1.850e-17   -16.701   -16.733    -0.032     (0)  
C(-4)         0.000e+00
   CH4             0.000e+00   0.000e+00  -148.400  -148.400     0.000     (0)  
   CH3-            0.000e+00   0.000e+00  -186.215  -186.247    -0.032     (0)  
C(4)          9.627e-04
   HCO3-           9.224e-04   8.566e-04    -3.035    -3.067    -0.032     (0)  
   CO2             1.349e-05   1.349e-05    -4.870    -4.870     0.000     (0)  
   Ca(HCO3)+       9.985e-06   9.272e-06    -5.001    -5.033    -0.032     (0)  
   CaCO3           8.128e-06   8.128e-06    -5.090    -5.090     0.000     (0)  
   CO3-2           7.660e-06   5.696e-06    -5.116    -5.244    -0.129     (0)  
   Mg(HCO3)+       5.018e-07   4.660e-07    -6.299    -6.332    -0.032     (0)  
   Mg(CO3)         2.699e-07   2.699e-07    -6.569    -6.569     0.000     (0)  
   Fe(OH)CO3       1.175e-07   1.175e-07    -6.930    -6.930     0.000     (0)  
   Na(HCO3)        7.598e-08   7.598e-08    -7.119    -7.119     0.000     (0)  
   Sr(HCO3)+       2.112e-08   1.961e-08    -7.675    -7.707    -0.032     (0)  
   Na(CO3)-        1.802e-08   1.673e-08    -7.744    -7.776    -0.032     (0)  
   Sr(CO3)         5.564e-09   5.564e-09    -8.255    -8.255     0.000     (0)  
   Fe(CO3)3-3      1.042e-12   5.351e-13   -11.982   -12.272    -0.289     (0)  
   FeCO3           1.237e-20   1.237e-20   -19.907   -19.907     0.000     (0)  
   Fe(CO3)2-2      5.582e-24   4.151e-24   -23.253   -23.382    -0.129     (0)  
   CO              0.000e+00   0.000e+00   -51.145   -51.145     0.000     (0)  
Ca            1.289e-03
   Ca+2            1.156e-03   8.598e-04    -2.937    -3.066    -0.129     (0)  
   Ca(SO4)         1.148e-04   1.148e-04    -3.940    -3.940     0.000     (0)  
   Ca(HCO3)+       9.985e-06   9.272e-06    -5.001    -5.033    -0.032     (0)  
   CaCO3           8.128e-06   8.128e-06    -5.090    -5.090     0.000     (0)  
   Ca(SeO4)        7.774e-08   7.774e-08    -7.109    -7.109     0.000     (0)  
   Ca(H3SiO4)+     7.615e-08   7.072e-08    -7.118    -7.150    -0.032     (0)  
   Ca(OH)+         2.185e-08   2.029e-08    -7.661    -7.693    -0.032     (0)  
   Ca(NH3)+2       0.000e+00   0.000e+00   -71.102   -71.231    -0.129     (0)  
   Ca(NH3)2+2      0.000e+00   0.000e+00  -139.767  -139.896    -0.129     (0)  
   Ca(S2O3)        0.000e+00   0.000e+00  -150.600  -150.600     0.000     (0)  
   Ca(NH3)3+2      0.000e+00   0.000e+00  -208.632  -208.761    -0.129     (0)  
   Ca(NH3)4+2      0.000e+00   0.000e+00  -277.797  -277.926    -0.129     (0)  
Fe(2)         3.118e-20
   Fe+2            1.569e-20   1.167e-20   -19.804   -19.933    -0.129     (0)  
   FeCO3           1.237e-20   1.237e-20   -19.907   -19.907     0.000     (0)  
   Fe(SO4)         2.101e-21   2.101e-21   -20.677   -20.677     0.000     (0)  
   Fe(OH)+         1.004e-21   9.327e-22   -20.998   -21.030    -0.032     (0)  
   Fe(CO3)2-2      5.582e-24   4.151e-24   -23.253   -23.382    -0.129     (0)  
   Fe(SeO4)        5.410e-24   5.410e-24   -23.267   -23.267     0.000     (0)  
   Fe(OH)2         3.408e-25   3.408e-25   -24.467   -24.467     0.000     (0)  
   Fe(OH)3-        5.217e-30   4.845e-30   -29.283   -29.315    -0.032     (0)  
   Fe(OH)4-2       3.067e-34   2.281e-34   -33.513   -33.642    -0.129     (0)  
   Fe(NH3)+2       0.000e+00   0.000e+00   -86.569   -86.698    -0.129     (0)  
   Fe(NH3)2+2      0.000e+00   0.000e+00  -153.834  -153.963    -0.129     (0)  
   Fe(HS)+         0.000e+00   0.000e+00  -157.988  -158.020    -0.032     (0)  
   Fe(NH3)4+2      0.000e+00   0.000e+00  -288.464  -288.593    -0.129     (0)  
   Fe(HS)2         0.000e+00   0.000e+00  -298.338  -298.338     0.000     (0)  
Fe(3)         1.211e-07
   Fe(OH)CO3       1.175e-07   1.175e-07    -6.930    -6.930     0.000     (0)  
   Fe(OH)3         2.291e-09   2.291e-09    -8.640    -8.640     0.000     (0)  
   Fe(OH)2+        9.986e-10   9.273e-10    -9.001    -9.033    -0.032     (0)  
   Fe(OH)4-        3.198e-10   2.970e-10    -9.495    -9.527    -0.032     (0)  
   Fe(CO3)3-3      1.042e-12   5.351e-13   -11.982   -12.272    -0.289     (0)  
   Fe(OH)+2        3.918e-15   2.914e-15   -14.407   -14.536    -0.129     (0)  
   Fe(H3SiO4)+2    4.959e-16   3.688e-16   -15.305   -15.433    -0.129     (0)  
   Fe(SO4)+        3.626e-20   3.367e-20   -19.441   -19.473    -0.032     (0)  
   Fe+3            5.637e-21   2.895e-21   -20.249   -20.538    -0.289     (0)  
   Fe(SO4)2-       2.213e-21   2.055e-21   -20.655   -20.687    -0.032     (0)  
   Fe(NO3)+2       3.222e-25   2.396e-25   -24.492   -24.620    -0.129     (0)  
   Fe2(OH)2+4      8.383e-28   2.564e-28   -27.077   -27.591    -0.515     (0)  
   Fe(SeO3)+       2.787e-29   2.588e-29   -28.555   -28.587    -0.032     (0)  
   Fe3(OH)4+5      3.163e-35   4.967e-36   -34.500   -35.304    -0.804     (0)  
   Fe(HSeO3)+2     3.879e-36   2.885e-36   -35.411   -35.540    -0.129     (0)  
   FeS2O3+         0.000e+00   0.000e+00  -165.491  -165.523    -0.032     (0)  
H(0)          0.000e+00
   H2              0.000e+00   0.000e+00   -44.275   -44.275     0.000     (0)  
K             1.000e-04
   K+              1.000e-04   9.286e-05    -4.000    -4.032    -0.032     (0)  
Mg            7.303e-05
   Mg+2            6.671e-05   4.961e-05    -4.176    -4.304    -0.129     (0)  
   Mg(SO4)         5.510e-06   5.510e-06    -5.259    -5.259     0.000     (0)  
   Mg(HCO3)+       5.018e-07   4.660e-07    -6.299    -6.332    -0.032     (0)  
   Mg(CO3)         2.699e-07   2.699e-07    -6.569    -6.569     0.000     (0)  
   Mg(OH)+         1.587e-08   1.474e-08    -7.799    -7.832    -0.032     (0)  
   Mg(H3SiO4)+     7.813e-09   7.256e-09    -8.107    -8.139    -0.032     (0)  
   Mg(SeO4)        7.109e-09   7.109e-09    -8.148    -8.148     0.000     (0)  
   Mg4(OH)4+4      1.439e-24   4.400e-25   -23.842   -24.357    -0.515     (0)  
   Mg(NH3)+2       0.000e+00   0.000e+00   -72.141   -72.269    -0.129     (0)  
   Mg(NH3)2+2      0.000e+00   0.000e+00  -140.306  -140.434    -0.129     (0)  
   Mg(S2O3)        0.000e+00   0.000e+00  -151.369  -151.369     0.000     (0)  
   Mg(NH3)3+2      0.000e+00   0.000e+00  -208.671  -208.799    -0.129     (0)  
   Mg(NH3)4+2      0.000e+00   0.000e+00  -277.436  -277.564    -0.129     (0)  
Mo            5.508e-06
   MoO4-2          5.508e-06   4.096e-06    -5.259    -5.388    -0.129     (0)  
   HMoO4-          3.997e-10   3.711e-10    -9.398    -9.430    -0.032     (0)  
   H2MoO4          2.862e-14   2.862e-14   -13.543   -13.543     0.000     (0)  
   Mo2O5(OH)+      3.111e-33   2.889e-33   -32.507   -32.539    -0.032     (0)  
   Mo7O24-6        0.000e+00   0.000e+00   -51.428   -52.586    -1.158     (0)  
   Mo7O23(OH)-5    0.000e+00   0.000e+00   -53.075   -53.879    -0.804     (0)  
   Mo7O22(OH)2-4   0.000e+00   0.000e+00   -56.017   -56.531    -0.515     (0)  
   Mo7O21(OH)3-3   0.000e+00   0.000e+00   -60.625   -60.914    -0.290     (0)  
   Mo+3            0.000e+00   0.000e+00   -85.895   -86.184    -0.289     (0)  
   Mo19O59-4       0.000e+00   0.000e+00  -182.746  -183.260    -0.515     (0)  
N(-3)         0.000e+00
   NH4+            0.000e+00   0.000e+00   -66.946   -66.978    -0.032     (0)  
   NH3             0.000e+00   0.000e+00   -68.065   -68.065     0.000     (0)  
   Ca(NH3)+2       0.000e+00   0.000e+00   -71.102   -71.231    -0.129     (0)  
   Mg(NH3)+2       0.000e+00   0.000e+00   -72.141   -72.269    -0.129     (0)  
   Sr(NH3)+2       0.000e+00   0.000e+00   -74.307   -74.435    -0.129     (0)  
   Fe(NH3)+2       0.000e+00   0.000e+00   -86.569   -86.698    -0.129     (0)  
   Ca(NH3)2+2      0.000e+00   0.000e+00  -139.767  -139.896    -0.129     (0)  
   Mg(NH3)2+2      0.000e+00   0.000e+00  -140.306  -140.434    -0.129     (0)  
   Fe(NH3)2+2      0.000e+00   0.000e+00  -153.834  -153.963    -0.129     (0)  
   Ca(NH3)3+2      0.000e+00   0.000e+00  -208.632  -208.761    -0.129     (0)  
   Mg(NH3)3+2      0.000e+00   0.000e+00  -208.671  -208.799    -0.129     (0)  
   Mg(NH3)4+2      0.000e+00   0.000e+00  -277.436  -277.564    -0.129     (0)  
   Ca(NH3)4+2      0.000e+00   0.000e+00  -277.797  -277.926    -0.129     (0)  
   Fe(NH3)4+2      0.000e+00   0.000e+00  -288.464  -288.593    -0.129     (0)  
N(5)          1.000e-05
   NO3-            1.000e-05   9.286e-06    -5.000    -5.032    -0.032     (0)  
   Sr(NO3)+        6.023e-11   5.593e-11   -10.220   -10.252    -0.032     (0)  
   Sr(NO3)2        2.664e-16   2.664e-16   -15.575   -15.575     0.000     (0)  
   Fe(NO3)+2       3.222e-25   2.396e-25   -24.492   -24.620    -0.129     (0)  
Na            1.700e-04
   Na+             1.699e-04   1.577e-04    -3.770    -3.802    -0.032     (0)  
   Na(HCO3)        7.598e-08   7.598e-08    -7.119    -7.119     0.000     (0)  
   Na(CO3)-        1.802e-08   1.673e-08    -7.744    -7.776    -0.032     (0)  
   NaAl(OH)4       2.889e-12   2.889e-12   -11.539   -11.539     0.000     (0)  
   Na(S2O3)-       0.000e+00   0.000e+00  -152.044  -152.077    -0.032     (0)  
O(0)          5.024e-04
   O2              2.512e-04   2.512e-04    -3.600    -3.600     0.000     (0)  
S(-2)         0.000e+00
   HS-             0.000e+00   0.000e+00  -142.395  -142.427    -0.032     (0)  
   H2S             0.000e+00   0.000e+00  -143.590  -143.590     0.000     (0)  
   S-2             0.000e+00   0.000e+00  -151.246  -151.374    -0.129     (0)  
   Fe(HS)+         0.000e+00   0.000e+00  -157.988  -158.020    -0.032     (0)  
   S2-2            0.000e+00   0.000e+00  -254.071  -254.199    -0.129     (0)  
   Fe(HS)2         0.000e+00   0.000e+00  -298.338  -298.338     0.000     (0)  
   S3-2            0.000e+00   0.000e+00  -359.426  -359.555    -0.129     (0)  
   S4-2            0.000e+00   0.000e+00  -465.881  -466.010    -0.129     (0)  
   S5-2            0.000e+00   0.000e+00  -572.556  -572.685    -0.129     (0)  
   Sb2HS4-         0.000e+00   0.000e+00  -606.462  -606.494    -0.032     (0)  
   Sb2S4-2         0.000e+00   0.000e+00  -607.733  -607.862    -0.129     (0)  
   Sb2H2S4         0.000e+00   0.000e+00  -609.737  -609.737     0.000     (0)  
S(2)          0.000e+00
   S2O3-2          0.000e+00   0.000e+00  -148.756  -148.884    -0.129     (0)  
   Ca(S2O3)        0.000e+00   0.000e+00  -150.600  -150.600     0.000     (0)  
   Mg(S2O3)        0.000e+00   0.000e+00  -151.369  -151.369     0.000     (0)  
   Na(S2O3)-       0.000e+00   0.000e+00  -152.044  -152.077    -0.032     (0)  
   Sr(S2O3)        0.000e+00   0.000e+00  -152.665  -152.665     0.000     (0)  
   H(S2O3)-        0.000e+00   0.000e+00  -155.285  -155.317    -0.032     (0)  
   H2(S2O3)        0.000e+00   0.000e+00  -162.870  -162.870     0.000     (0)  
   FeS2O3+         0.000e+00   0.000e+00  -165.491  -165.523    -0.032     (0)  
S(3)          0.000e+00
   S2O4-2          0.000e+00   0.000e+00  -135.431  -135.559    -0.129     (0)  
   HS2O4-          0.000e+00   0.000e+00  -141.180  -141.212    -0.032     (0)  
   H2S2O4          0.000e+00   0.000e+00  -149.065  -149.065     0.000     (0)  
S(4)          0.000e+00
   SO3-2           0.000e+00   0.000e+00   -47.871   -47.999    -0.129     (0)  
   H(SO3)-         0.000e+00   0.000e+00   -48.950   -48.982    -0.032     (0)  
   SO2             0.000e+00   0.000e+00   -55.275   -55.275     0.000     (0)  
   H2(SO3)         0.000e+00   0.000e+00   -55.275   -55.275     0.000     (0)  
   S2O5-2          0.000e+00   0.000e+00   -99.326   -99.454    -0.129     (0)  
   S3O6-2          0.000e+00   0.000e+00  -180.856  -180.984    -0.129     (0)  
   S4O6-2          0.000e+00   0.000e+00  -273.571  -273.699    -0.129     (0)  
   S5O6-2          0.000e+00   0.000e+00  -395.676  -395.805    -0.129     (0)  
S(6)          1.000e-03
   SO4-2           8.795e-04   6.540e-04    -3.056    -3.184    -0.129     (0)  
   Ca(SO4)         1.148e-04   1.148e-04    -3.940    -3.940     0.000     (0)  
   Mg(SO4)         5.510e-06   5.510e-06    -5.259    -5.259     0.000     (0)  
   Sr(SO4)         1.974e-07   1.974e-07    -6.705    -6.705     0.000     (0)  
   H(SO4)-         4.731e-10   4.393e-10    -9.325    -9.357    -0.032     (0)  
   Al(SO4)+        1.992e-17   1.850e-17   -16.701   -16.733    -0.032     (0)  
   Fe(SO4)+        3.626e-20   3.367e-20   -19.441   -19.473    -0.032     (0)  
   Fe(SO4)2-       2.213e-21   2.055e-21   -20.655   -20.687    -0.032     (0)  
   Fe(SO4)         2.101e-21   2.101e-21   -20.677   -20.677     0.000     (0)  
   HSO5-           4.785e-31   4.444e-31   -30.320   -30.352    -0.032     (0)  
   S2O8-2          0.000e+00   0.000e+00   -46.731   -46.859    -0.129     (0)  
Sb(3)         2.435e-33
   Sb(OH)3         2.435e-33   2.435e-33   -32.614   -32.614     0.000     (0)  
   Sb(OH)4-        5.642e-37   5.239e-37   -36.249   -36.281    -0.032     (0)  
   Sb(OH)2+        3.943e-40   3.662e-40   -39.404   -39.436    -0.032     (0)  
   Sb(OH)+2        0.000e+00   0.000e+00   -48.050   -48.179    -0.129     (0)  
   Sb+3            0.000e+00   0.000e+00   -57.512   -57.802    -0.289     (0)  
   Sb2HS4-         0.000e+00   0.000e+00  -606.462  -606.494    -0.032     (0)  
   Sb2S4-2         0.000e+00   0.000e+00  -607.733  -607.862    -0.129     (0)  
   Sb2H2S4         0.000e+00   0.000e+00  -609.737  -609.737     0.000     (0)  
Sb(5)         2.025e-08
   Sb(OH)6-        2.025e-08   1.880e-08    -7.694    -7.726    -0.032     (0)  
   Sb(OH)5         6.941e-14   6.941e-14   -13.159   -13.159     0.000     (0)  
   Sb(OH)4+        2.890e-25   2.683e-25   -24.539   -24.571    -0.032     (0)  
   Sb12(OH)67-7    0.000e+00   0.000e+00   -93.187   -94.763    -1.576     (0)  
   Sb12(OH)66-6    0.000e+00   0.000e+00   -95.938   -97.096    -1.158     (0)  
   Sb12(OH)65-5    0.000e+00   0.000e+00   -99.615  -100.419    -0.804     (0)  
   Sb12(OH)64-4    0.000e+00   0.000e+00  -104.437  -104.952    -0.515     (0)  
Se(-2)        0.000e+00
   HSe-            0.000e+00   0.000e+00   -97.374   -97.407    -0.032     (0)  
   H2Se            0.000e+00   0.000e+00  -101.709  -101.709     0.000     (0)  
   Se-2            0.000e+00   0.000e+00  -104.035  -104.164    -0.129     (0)  
   Se2-2           0.000e+00   0.000e+00  -157.989  -158.118    -0.129     (0)  
   Se3-2           0.000e+00   0.000e+00  -212.614  -212.742    -0.129     (0)  
   Se4-2           0.000e+00   0.000e+00  -268.838  -268.967    -0.129     (0)  
Se(4)         1.949e-19
   H(SeO3)-        1.098e-19   1.020e-19   -18.959   -18.992    -0.032     (0)  
   SeO3-2          8.509e-20   6.328e-20   -19.070   -19.199    -0.129     (0)  
   H2(SeO3)        3.131e-25   3.131e-25   -24.504   -24.504     0.000     (0)  
   Fe(SeO3)+       2.787e-29   2.588e-29   -28.555   -28.587    -0.032     (0)  
   Fe(HSeO3)+2     3.879e-36   2.885e-36   -35.411   -35.540    -0.129     (0)  
Se(6)         1.301e-06
   SeO4-2          1.216e-06   9.041e-07    -5.915    -6.044    -0.129     (0)  
   Ca(SeO4)        7.774e-08   7.774e-08    -7.109    -7.109     0.000     (0)  
   Mg(SeO4)        7.109e-09   7.109e-09    -8.148    -8.148     0.000     (0)  
   H(SeO4)-        3.851e-13   3.576e-13   -12.414   -12.447    -0.032     (0)  
   Fe(SeO4)        5.410e-24   5.410e-24   -23.267   -23.267     0.000     (0)  
Si            4.000e-04
   H4(SiO4)        3.911e-04   3.911e-04    -3.408    -3.408     0.000     (0)  
   H3(SiO4)-       8.655e-06   8.037e-06    -5.063    -5.095    -0.032     (0)  
   Ca(H3SiO4)+     7.615e-08   7.072e-08    -7.118    -7.150    -0.032     (0)  
   Si2O2(OH)5-     7.406e-08   6.877e-08    -7.130    -7.163    -0.032     (0)  
   Mg(H3SiO4)+     7.813e-09   7.256e-09    -8.107    -8.139    -0.032     (0)  
   Si2O3(OH)4-2    1.655e-10   1.231e-10    -9.781    -9.910    -0.129     (0)  
   H2(SiO4)-2      7.701e-11   5.727e-11   -10.113   -10.242    -0.129     (0)  
   Si4O6(OH)6-2    1.598e-13   1.188e-13   -12.796   -12.925    -0.129     (0)  
   AlH3SiO4+2      5.962e-15   4.434e-15   -14.225   -14.353    -0.129     (0)  
   Si3O6(OH)3-3    1.678e-15   8.618e-16   -14.775   -15.065    -0.289     (0)  
   Si3O5(OH)5-3    1.333e-15   6.845e-16   -14.875   -15.165    -0.289     (0)  
   Fe(H3SiO4)+2    4.959e-16   3.688e-16   -15.305   -15.433    -0.129     (0)  
   Si4O7(OH)6-4    2.483e-20   7.594e-21   -19.605   -20.120    -0.515     (0)  
   Si4O8(OH)4-4    1.973e-20   6.033e-21   -19.705   -20.219    -0.515     (0)  
   Si6O15-6        6.738e-33   4.687e-34   -32.171   -33.329    -1.158     (0)  
Sr            2.259e-06
   Sr+2            2.034e-06   1.513e-06    -5.692    -5.820    -0.129     (0)  
   Sr(SO4)         1.974e-07   1.974e-07    -6.705    -6.705     0.000     (0)  
   Sr(HCO3)+       2.112e-08   1.961e-08    -7.675    -7.707    -0.032     (0)  
   Sr(CO3)         5.564e-09   5.564e-09    -8.255    -8.255     0.000     (0)  
   Sr(NO3)+        6.023e-11   5.593e-11   -10.220   -10.252    -0.032     (0)  
   Sr(OH)+         1.188e-11   1.103e-11   -10.925   -10.957    -0.032     (0)  
   Sr(NO3)2        2.664e-16   2.664e-16   -15.575   -15.575     0.000     (0)  
   Sr(NH3)+2       0.000e+00   0.000e+00   -74.307   -74.435    -0.129     (0)  
   Sr(S2O3)        0.000e+00   0.000e+00  -152.665  -152.665     0.000     (0)  

------------------------------Saturation indices-------------------------------

  Phase               SI** log IAP   log K(298 K,   1 atm)

  Acmite            0.57      1.46    0.89  NaFeSi2O6
  Afwillite       -16.52     32.90   49.42  Ca3Si2O4(OH)6
  Al(cr)         -139.48    -54.05   85.43  Al
  Albite-high      -2.27      1.87    4.14  NaAlSi3O8
  Albite-low       -0.87      1.87    2.74  NaAlSi3O8
  Amesite           2.76     72.15   69.39  Mg4Al4Si2O10(OH)8
  Amesite-Fe      -47.47      9.63   57.10  Fe4Al4Si2O10(OH)8
  Analcime         -1.52      5.12    6.64  Na0.99Al0.99Si2.01O6:H2O
  Anhydrite        -1.81     -6.25   -4.44  Ca(SO4)
  Annite          -42.06     -9.24   32.82  KFe3Si3AlO10(OH)2
  Anorthite        -3.41     21.90   25.31  CaAl2Si2O8
  Antigorite      -39.69    460.19  499.89  Mg48Si34O85(OH)62
  Aragonite         0.00     -8.31   -8.31  CaCO3
  Arcanite         -9.40    -11.25   -1.85  K2SO4
  Artinite         -7.36      2.45    9.81  Mg2(CO3)(OH)2:3H2O
  Bassanite        -2.33     -6.25   -3.92  CaSO4:0.5H2O
  Beidellite-Ca     2.12      7.89    5.77  Ca0.17Al2.34Si3.66O10(OH)2
  Beidellite-K      2.44      7.04    4.60  K0.34Al2.34Si3.66O10(OH)2
  Beidellite-Mg     2.45      7.68    5.23  Mg0.17Al2.34Si3.66O10(OH)2
  Beidellite-Na     2.02      7.12    5.10  Na0.34Al2.34Si3.66O10(OH)2
  Beidellite_SBld-1   1.96      9.54    7.58  Ca0.185K0.104(Si3.574Al0.426)(Al1.812Mg0.090Fe0.112)O10(OH)2
  Beidellite_SBld-1(4.576H2O)   5.28      9.54    4.26  Ca0.185K0.104Si3.574Al2.238Mg0.090Fe0.112O10(OH)2:4.576H2O
  Berthierine(FeII) -29.79      4.82   34.61  (Fe2Al)(SiAl)O5(OH)4
  Berthierine(FeIII) -32.95     -4.10   28.85  (Fe2.34Fe0.33Al0.33)(Si1.34Al0.66)O5(OH)4
  Berthierine_ISGS -22.38      5.56   27.94  (Si1.332Al0.668)(Al0.976Fe0.182Fe1.44Mg0.157)O5(OH)4
  Berthierine_Lorraine   7.86      8.87    1.01  Fe0.608Fe0.936Mg0.37Al1.052Si1.52O5(OH)4
  Bloedite        -15.93    -18.28   -2.35  Na2Mg(SO4)2:4H2O
  Boehmite          0.12      7.74    7.62  AlO(OH)
  Brucite          -5.10     12.00   17.10  Mg(OH)2
  Burkeite        -33.66    -34.43   -0.77  Na6(CO3)(SO4)2
  C(cr)           -71.79   -103.94  -32.15  C
  C2SH(alpha)     -12.47     23.07   35.54  Ca2(HSiO4)(OH)
  C3AH6           -25.12     55.20   80.32  Ca3Al2(OH)12
  C3FH6           -24.77     47.56   72.33  Ca3Fe2(OH)12
  C4AH13          -35.21     68.44  103.65  Ca4Al2(OH)14:6H2O
  C4FH13          -34.28     60.80   95.08  Ca4Fe2(OH)14:6H2O
  Ca(cr)         -124.81    -27.95   96.85  Ca
  Ca(NO3)2(s)     -19.02    -13.13    5.89  Ca(NO3)2
  Ca(SeO3):H2O(s) -15.86    -22.26   -6.40  Ca(SeO3):H2O
  Ca(SeO4):2H2O(s)  -6.43     -9.11   -2.68  Ca(SeO4):2H2O
  Ca(SO3)(s)      -44.57    -51.07   -6.50  Ca(SO3)
  Ca2Fe2O5(s)     -22.42     34.32   56.74  Ca2Fe2O5
  CaCO3:H2O(s)     -0.71     -8.31   -7.60  CaCO3:H2O
  CaFe2O4(s)       -0.16     21.08   21.24  CaFe2O4
  Calcite           0.17     -8.31   -8.48  CaCO3
  CaMg3(CO3)4(s)   -6.15    -36.96  -30.81  CaMg3(CO3)4
  CaMgSr(CO3)2      0.00      2.75    2.75  CaMg0.97Sr0.03(MoO4)0.00011(Sb(OH)6)0.0000033(SeO3)0.00001(CO3)1.9998767
  CaMoO4(s)        -0.55     -8.45   -7.90  CaMoO4
  CaO(cr)         -19.46     13.24   32.70  CaO
  Celadonite-Fe   -11.85     -5.40    6.45  KFeAlSi4O10(OH)2
  Celadonite-Mg     0.03     10.23   10.20  KMgAlSi4O10(OH)2
  Celestite        -2.38     -9.00   -6.62  Sr(SO4)
  CH4(g)         -145.28   -186.33  -41.05  CH4
  Chabazite         3.57     15.09   11.52  CaAl2Si4O12:6H2O
  Chamosite       -60.56    -12.88   47.68  Fe5Al2Si3O10(OH)8
  Chukanovite     -31.77    -28.80    2.97  Fe2(OH)2CO3
  Clinochlore       3.58     65.26   61.68  Mg5Al2Si3O10(OH)8
  Clinoptilolite_Ca   1.45     -0.90   -2.35  Ca0.55(Si4.9Al1.1)O12:3.9H2O
  Clinoptilolite_K  -2.42     -3.65   -1.23  K1.1(Si4.9Al1.1)O12:2.7H2O
  Clinoptilolite_Na  -3.31     -3.40   -0.09  Na1.1(Si4.9Al1.1)O12:3.5H2O
  CO(g)           -48.11    -62.75  -14.64  CO
  CO2(g)           -3.40    -21.55  -18.15  CO2
  Corundum         -2.82     15.48   18.30  Al2O3
  Cristobalite     -0.25     -3.41   -3.16  SiO2
  Cronstedtite-Th -18.93     -2.82   16.11  Fe4SiO5(OH)4
  CSH0.8           -3.87      7.18   11.05  Ca0.8SiO2.8:1.54H2O
  CSH1.2           -6.82     12.48   19.30  Ca1.2SiO3.2:2.06H2O
  CSH1.6          -10.22     17.78   28.00  Ca1.6SiO3.6:2.58H2O
  Dawsonite        -3.46     -9.46   -6.00  NaAl(CO3)(OH)2
  Diaspore          0.87      7.74    6.87  AlO(OH)
  Dickite          -0.73      8.66    9.39  Al2Si2O5(OH)4
  Dolomite         -0.73    -17.86  -17.13  CaMg(CO3)2
  Downeyite       -27.35    -35.50   -8.15  SeO2
  Eastonite        -1.77     44.53   46.30  KMg2Al3Si2O10(OH)2
  Epsonite         -5.61     -7.49   -1.88  Mg(SO4):7H2O
  Ettringite      -20.52     36.45   56.97  Ca6Al2(SO4)3(OH)12:26H2O
  Ettringite-Fe   -25.74     28.81   54.55  Ca6Fe2(SO4)3(OH)12:26H2O
  Fayalite        -30.21    -10.66   19.55  Fe2(SiO4)
  Fe(alpha,cr)    -60.71    -44.82   15.89  Fe
  Fe(OH)2(cr)     -16.41     -3.63   12.78  Fe(OH)2
  Fe0.932O(s)     -14.09     -0.58   13.51  Fe0.932O
  Fe1.04Se(beta) -107.60   -110.98   -3.38  Fe1.04Se
  Fe2(SeO3)3:6H2O(s) -57.09    -98.67  -41.58  Fe2(SeO3)3:6H2O
  Fe3O4(s)         -8.39      4.21   12.60  Fe3O4
  Fe3Se4(gamma)  -366.39   -391.92  -25.53  Fe3Se4
  Fe7Se8(alfa)   -793.23   -828.67  -35.44  Fe7Se8
  FeAl2O4(s)      -15.35     11.85   27.20  FeAl2O4
  FeMoO4(s)       -17.00    -25.32   -8.32  FeMoO4
  FeO(s)          -17.02     -3.63   13.39  FeO
  Ferrihydrite(am)  -0.00      3.92    3.92  Fe(OH)3
  Ferrihydrite(cr)   2.70      3.92    1.22  Fe(OH)3
  Ferrihydrite(s)   1.14      3.92    2.78  Fe(OH)3
  Ferroselite    -156.45   -173.55  -17.10  FeSe2
  Ferrosilite     -39.75     -7.04   32.71  FeSiO3
  FeS(am)        -151.26   -154.21   -2.95  FeS
  Foshagite       -23.22     42.74   65.96  Ca4Si3O9(OH)2:0.5H2O
  Gaylussite      -11.73    -21.16   -9.43  CaNa2(CO3)2:5H2O
  Gibbsite         -0.00      7.74    7.74  Al(OH)3
  Gismondine        4.84     43.81   38.97  Ca2Al4Si4O16:9H2O
  Glaserite       -36.92    -44.53   -7.61  Na2K6(SO4)4
  Glauberite      -19.01    -17.04    1.97  Na2Ca(SO4)2
  Glauconite       -0.66      1.18    1.84  (K0.75Mg0.25Fe1.5Al0.25)(Al0.25Si3.75)O10(OH)2
  Goethite          3.75      3.92    0.17  FeOOH
  GR-CO3          -57.62     -2.12   55.50  Fe4Fe2(OH)12CO3:2H2O
  GR-SO4          -58.36     -0.06   58.30  Fe4Fe2(OH)12SO4
  Greenalite      -39.52    -17.70   21.82  Fe3Si2O5(OH)4
  Greigite       -556.98   -572.01  -15.03  Fe3S4
  Gypsum           -1.64     -6.25   -4.61  CaSO4:2H2O
  Gyrolite         -6.08     16.26   22.34  Ca2Si3O7.5(OH):2H2O
  H2(g)           -41.20    -41.20    0.00  H2
  H2MoO4(s)        -8.52    -21.69  -13.17  H2MoO4
  H2O(g)           -1.50    -43.00  -41.50  H2O
  H2S(g)         -142.58   -150.58   -8.00  H2S
  Halloysite       -1.66      8.66   10.32  Al2Si2O5(OH)4
  HBeidellite-Ca    5.80      7.89    2.09  Ca0.17Al2.34Si3.66O10(OH)2:4.45H2O
  HBeidellite-K     4.82      7.04    2.22  K0.34Al2.34Si3.66O10(OH)2:1.96H2O
  HBeidellite-Mg    5.47      7.68    2.21  Mg0.17Al2.34Si3.66O10(OH)2:4.61H2O
  HBeidellite-Na    5.29      7.12    1.83  Na0.34Al2.34Si3.66O10(OH)2:3.84H2O
  Hematite(cr)      8.67      7.84   -0.83  Fe2O3
  Hematite(s)       7.94      7.84   -0.10  Fe2O3
  Hemicarboaluminate -57.87    115.33  173.20  Ca6O6:Al4O6:CaCO3:Ca(OH)2:21H2O
  Heulandite_Ca     4.89      7.35    2.46  Ca1.07Al2.14Si6.86O18:6.17H2O
  Heulandite_Na    -0.30      2.50    2.80  Na2.14Al2.14Si6.86O18:6.17H2O
  Hexahydrite      -5.85     -7.49   -1.64  Mg(SO4):6H2O
  Hillebrandite   -13.88     23.07   36.95  Ca2SiO3(OH)2:0.17H2O
  HMontmorillonite-BCCa   3.37      5.55    2.18  Ca0.17Mg0.34Al1.66Si4O10(OH)2:4.45H2O
  HMontmorillonite-BCK   2.63      4.70    2.07  K0.34Mg0.34Al1.66Si4O10(OH)2:1.96H2O
  HMontmorillonite-BCMg   3.01      5.34    2.33  Mg0.17Mg0.34Al1.66Si4O10(OH)2:4.61H2O
  HMontmorillonite-BCNa   3.01      4.78    1.77  Na0.34Mg0.34Al1.66Si4O10(OH)2:3.84H2O
  HMontmorillonite-HCCa   2.23      8.38    6.15  Ca0.3Mg0.6Al1.4Si4O10(OH)2:4.45H2O
  HMontmorillonite-HCK   2.64      6.88    4.24  K0.6Mg0.6Al1.4Si4O10(OH)2:1.96H2O
  HMontmorillonite-HCMg   1.54      8.01    6.47  Mg0.3Mg0.6Al1.4Si4O10(OH)2:4.61H2O
  HMontmorillonite-HCNa   2.48      7.02    4.54  Na0.6Mg0.6Al1.4Si4O10(OH)2:3.84H2O
  HNontronite-Ca    4.40      1.51   -2.89  Ca0.17Fe1.67Al0.67Si3.66O10(OH)2:4.45H2O
  HNontronite-K     0.28      0.66    0.38  K0.34Fe1.67Al0.67Si3.66O10(OH)2:1.96H2O
  HNontronite-Mg    3.89      1.30   -2.59  Mg0.17Fe1.67Al0.67Si3.66O10(OH)2:4.61H2O
  HNontronite-Na    3.88      0.74   -3.14  Na0.34Fe1.67Al0.67Si3.66O10(OH)2:3.84H2O
  HSaponite-Ca      0.05     28.41   28.36  Ca0.17Mg3Al0.34Si3.66O10(OH)2:4.45H2O
  HSaponite-FeCa  -15.18     12.79   27.97  Ca0.17Mg2FeAl0.34Si3.66O10(OH)2:4.45H2O
  HSaponite-FeK   -16.17     11.94   28.11  K0.34Mg2FeAl0.34Si3.66O10(OH)2:1.96H2O
  HSaponite-FeMg  -15.50     12.57   28.07  Mg0.17Mg2FeAl0.34Si3.66O10(OH)2:4.61H2O
  HSaponite-FeNa  -15.71     12.01   27.72  Na0.34Mg2FeAl0.34Si3.66O10(OH)2:3.84H2O
  HSaponite-K      -0.93     27.56   28.49  K0.34Mg3Al0.34Si3.66O10(OH)2:1.96H2O
  HSaponite-Mg     -0.28     28.20   28.48  Mg0.17Mg3Al0.34Si3.66O10(OH)2:4.61H2O
  HSaponite-Na     -0.39     27.64   28.03  Na0.34Mg3Al0.34Si3.66O10(OH)2:3.84H2O
  HVermiculite-Ca -60.17     37.65   97.82  Ca0.43Mg3.00Si3.14Al0.86O10(OH)2:4.45H2O
  HVermiculite-K  -52.18     35.50   87.68  K0.86Mg3.00Si3.14Al0.86O10(OH)2:1.96H2O
  HVermiculite-Mg -31.06     37.12   68.18  Mg0.43Mg3.00Si3.14Al0.86O10(OH)2:4.61H2O
  HVermiculite-Na -60.82     35.70   96.52  Na0.86Mg3.00Si3.14Al0.86O10(OH)2:3.84H2O
  Hydrotalcite    -10.26     63.48   73.74  Mg4Al2(OH)14:3H2O
  Hydrotalcite-CO3  -8.93     41.93   50.86  Mg4Al2(OH)12CO3:2H2O
  Illite-Al         1.81     14.83   13.02  K0.85Al2.85Si3.15O10(OH)2
  Illite-FeII      -0.26      9.20    9.46  K0.85Fe0.25Al2.35Si3.4O10(OH)2
  Illite-FeIII      1.51     13.87   12.36  K0.85Fe0.25Al2.6Si3.15O10(OH)2
  Illite-Mg         2.10     13.11   11.01  K0.85Mg0.25Al2.35Si3.4O10(OH)2
  Illite-Smec_ISCz-1(2.996H2O)  -3.58     10.03   13.61  (Na0.134K0.53)(Si3.565Al0.435)(Al1.717Fe0.05Fe0.017Mg0.218)O10(OH)2:2.996H2O
  Illite/smectite  -0.05     10.84   10.89  (Ca0.092K0.439)(Si3.559Al0.441)(Al1.728Fe0.011Fe0.034Mg0.255)O10(OH)2
  Illite_Imt-2     -0.21     11.31   11.52  (Na0.044K0.762)(Si3.387Al0.613)(Al1.427Fe0.292Fe0.084Mg0.241)O10(OH)2
  Jaffeite        -41.44     72.62  114.06  Ca6(Si2O7)(OH)6
  Jennite         -48.62     98.71  147.33  Ca9Si6O16(OH)10:6H2O
  K(cr)           -65.97    -16.48   49.49  K
  K(NO3)(s)        -8.96     -9.06   -0.10  K(NO3)
  K(OH)(s)        -20.48      4.12   24.60  K(OH)
  K-carbonate     -16.34    -13.31    3.03  K2CO3:1.5H2O
  K-trona         -21.41    -30.51   -9.10  K2NaH(CO3)2:2H2O
  K2CO3(cr)       -18.72    -13.31    5.41  K2CO3
  K2O(s)          -75.87      8.24   84.11  K2O
  KAl(OH)4        -12.36     11.86   24.22  KAl(OH)4
  KAl(SO4)2(s)    -30.86    -27.12    3.74  KAl(SO4)2
  KAl(SO4)2:12H2O(s) -20.44    -27.12   -6.68  KAl(SO4)2:12H2O
  Kalicinite       -7.37    -17.43  -10.06  KHCO3
  Kaolinite         2.16      8.66    6.50  Al2(Si2O5)(OH)4
  Katoite         -19.37     51.79   71.16  Ca3Al2(SiO4)(OH)8
  Lansfordite      -4.51     -9.55   -5.04  Mg(CO3):5H2O
  Laumontite        3.42     15.09   11.67  CaAl2Si4O12:4H2O
  Leonhardtite     -6.60     -7.49   -0.89  MgSO4:4H2O
  Leonite         -14.76    -18.74   -3.98  K2Mg(SO4)2:4H2O
  Lepidocrocite     2.06      3.92    1.86  FeOOH
  Lizardite        -3.89     29.19   33.08  Mg3Si2O5(OH)4
  Mackinawite    -151.02   -154.21   -3.19  FeS
  Maghemite         5.05      7.84    2.79  Fe2O3
  Magnesite(nat)   -0.64     -9.55   -8.91  MgCO3
  Magnesite(syn)   -1.45     -9.55   -8.10  Mg(CO3)
  Magnetite        -6.13      4.21   10.34  Fe3O4
  Margarite         0.39     37.38   36.99  CaAl4Si2O10(OH)2
  Melanterite     -20.84    -23.12   -2.28  FeSO4:7H2O
  Mercallite      -13.97    -15.37   -1.40  KHSO4
  Merlinoite_K     -3.81      5.66    9.47  K1.04Al1.04Si1.96O6:1.69H2O
  Merlinoite_Na    -4.39      5.90   10.29  Na1.04Al1.04Si1.96O6:2.27H2O
  Mg(cr)         -108.97    -29.19   79.78  Mg
  Mg(NO3)2(s)     -29.87    -14.37   15.50  Mg(NO3)2
  Mg(NO3)2:6H2O(s) -16.95    -14.37    2.58  Mg(NO3)2:6H2O
  Mg(SeO3):6H2O(s) -17.68    -23.50   -5.82  Mg(SeO3):6H2O
  Mg(SeO4):6H2O(s)  -9.22    -10.35   -1.13  Mg(SeO4):6H2O
  Mg(SO4)(s)      -16.59     -7.49    9.10  Mg(SO4)
  Mg(SO4):H2O(s)   -7.37     -7.49   -0.12  Mg(SO4):H2O
  Mg5(CO3)4(OH)2:4H2O(s) -15.88    -26.19  -10.31  Mg5(CO3)4(OH)2:4H2O
  MgMoO4(s)        -9.05     -9.69   -0.64  MgMoO4
  Microcline        1.59      1.64    0.05  KAlSi3O8
  Minnesotaite    -39.50    -24.51   14.99  Fe3Si4O10(OH)2
  Mirabilite       -9.56    -10.79   -1.23  Na2SO4:10H2O
  Mo(cr)         -125.70   -145.28  -19.58  Mo
  Mo3O8(s)        -42.71   -106.27  -63.56  Mo3O8
  Monocarboaluminate -23.41     46.89   70.30  (CaO)3Al2O3:CaCO3:10.68H2O
  Monosulfate-Fe  -24.74     41.31   66.05  Ca4Fe2(SO4)(OH)12:6H2O
  Monosulfoaluminate -24.12     48.95   73.07  Ca4Al2(SO4)(OH)12:6H2O
  Montmorillonite-BCCa   1.35      5.55    4.20  Ca0.17Mg0.34Al1.66Si4O10(OH)2
  Montmorillonite-BCK   1.89      4.70    2.81  K0.34Mg0.34Al1.66Si4O10(OH)2
  Montmorillonite-BCMg   1.65      5.34    3.69  Mg0.17Mg0.34Al1.66Si4O10(OH)2
  Montmorillonite-BCNa   1.39      4.78    3.39  Na0.34Mg0.34Al1.66Si4O10(OH)2
  Montmorillonite-HCCa   1.49      8.38    6.89  Ca0.3Mg0.6Al1.4Si4O10(OH)2
  Montmorillonite-HCK   2.45      6.88    4.43  K0.6Mg0.6Al1.4Si4O10(OH)2
  Montmorillonite-HCMg   2.03      8.01    5.98  Mg0.3Mg0.6Al1.4Si4O10(OH)2
  Montmorillonite-HCNa   1.57      7.02    5.45  Na0.6Mg0.6Al1.4Si4O10(OH)2
  MoO2(s)         -33.01    -62.89  -29.88  MoO2
  MoO3(s)          -9.71    -21.69  -11.98  MoO3
  Mordenite_Ca      0.77     -2.15   -2.92  Ca0.515Al1.03Si4.97O12:3.1H2O
  Mordenite_Oregon  -0.39     -4.57   -4.18  Ca0.289Na0.362Al0.94Si5.06O12:3.468H2O
  MoS2(s)        -294.14   -364.05  -69.91  MoS2
  MoS3(s)        -405.36   -473.43  -68.07  MoS3
  Muscovite         4.10     17.12   13.02  KAl3Si3O10(OH)2
  N2(g)           -21.89   -232.34 -210.45  N2
  Na(cr)          -62.14    -16.25   45.89  Na
  Na(NO3)(s)       -9.92     -8.83    1.09  Na(NO3)
  Na2(CO3)(cr)    -13.97    -12.85    1.12  Na2(CO3)
  Na2CO3:7H2O(s)  -12.39    -12.85   -0.46  Na2CO3:7H2O
  Na2O(cr)        -58.76      8.70   67.46  Na2O
  Nahcolite        -6.46    -17.20  -10.74  Na(HCO3)
  Natrolite        -5.35     13.96   19.31  Na2(Al2Si3)O10:2H2O
  Natron          -12.02    -12.85   -0.83  Na2(CO3):10H2O
  Nesquehonite     -4.45     -9.55   -5.10  Mg(CO3):3H2O
  Nontronite-Ca     4.37      1.51   -2.86  Ca0.17Fe1.67Al0.67Si3.66O10(OH)2
  Nontronite-K      4.69      0.66   -4.03  K0.34Fe1.67Al0.67Si3.66O10(OH)2
  Nontronite-Mg     4.71      1.30   -3.41  Mg0.17Fe1.67Al0.67Si3.66O10(OH)2
  Nontronite-Na     4.27      0.74   -3.53  Na0.34Fe1.67Al0.67Si3.66O10(OH)2
  Nontronite_Nau-2   4.03      5.33    1.30  Ca0.247K0.02(Si3.458Al0.542)(Fe1.688Al0.276Mg0.068)O10(OH)2
  O2(g)            -0.70     -3.60   -2.90  O2
  Okenite          -2.76      6.42    9.18  CaSi2O5:2H2O
  Paragonite        0.56     17.35   16.79  NaAl3Si3O10(OH)2
  Pentahydrite     -6.21     -7.49   -1.28  MgSO4:5H2O
  Periclase        -9.58     12.00   21.58  MgO
  Phillipsite_Ca    1.82      4.14    2.32  Ca0.5AlSi3O8:3H2O
  Phillipsite_K     1.60      1.64    0.04  KAlSi3O8:3H2O
  Phillipsite_Na    0.42      1.87    1.45  NaAlSi3O8:3H2O
  Phlogopite_K     -3.44     37.64   41.08  KMg3Si3AlO10(OH)2
  Phlogopite_Na    -6.31     37.87   44.18  NaMg3AlSi3O10(OH)2
  Picromerite     -14.41    -18.74   -4.33  K2Mg(SO4)2:6H2O
  Pirssonite      -12.25    -21.16   -8.91  Na2Ca(CO3)2:2H2O
  Polyhalite      -17.50    -31.24  -13.74  K2MgCa2(SO4)4:2H2O
  Portlandite      -9.57     13.24   22.81  Ca(OH)2
  Pyrite         -246.77   -263.59  -16.82  FeS2
  Pyrophyllite      2.29      1.85   -0.44  Al2Si4O10(OH)2
  Pyrrhotite     -143.06   -148.38   -5.32  Fe0.87S
  Quartz            0.33     -3.41   -3.74  SiO2
  Ripidolite_Cca-2 -20.75     40.60   61.35  (Mg2.964Fe1.712Fe0.215Al1.116Ca0.011)(Si2.633Al1.367)O10(OH)8
  S(cr)          -107.25   -109.39   -2.14  S
  Sanidine          1.06      1.64    0.58  KAlSi3O8
  Saponite-Ca      -0.93     28.41   29.34  Ca0.17Mg3Al0.34Si3.66O10(OH)2
  Saponite-FeCa   -11.69     12.79   24.48  Ca0.17Mg2FeAl0.34Si3.66O10(OH)2
  Saponite-FeK    -13.46     11.94   25.40  K0.34Mg2FeAl0.34Si3.66O10(OH)2
  Saponite-FeMg   -13.46     12.57   26.03  Mg0.17Mg2FeAl0.34Si3.66O10(OH)2
  Saponite-FeNa   -13.72     12.01   25.73  Na0.34Mg2FeAl0.34Si3.66O10(OH)2
  Saponite-K       -0.61     27.56   28.17  K0.34Mg3Al0.34Si3.66O10(OH)2
  Saponite-Mg      -0.59     28.20   28.79  Mg0.17Mg3Al0.34Si3.66O10(OH)2
  Saponite-Na      -1.03     27.64   28.67  Na0.34Mg3Al0.34Si3.66O10(OH)2
  Saponite_SapCa   -2.79     28.66   31.45  (Na0.394K0.021Ca0.038)(Si3.569Al0.397)(Mg2.949Fe0.034Fe0.021)O10(OH)2
  Saponite_SapCa(4.151H2O)   0.39     28.66   28.27  (Na0.394K0.021Ca0.038)(Si3.569Al0.397)(Mg2.949Fe0.034Fe0.021)O10(OH)2:4.151H2O
  Sb(cr)          -82.74    -94.41  -11.67  Sb
  Sb2O5(s)        -18.92    -26.32   -7.40  Sb2O5
  Schwertmannite(cr)   3.15     11.87    8.72  Fe8O8(OH)6SO4
  Scolecite         1.87     18.50   16.63  CaAl2Si3O10:3H2O
  Se(s)           -56.74    -64.36   -7.62  Se
  SeO3(cr)        -42.71    -22.35   20.36  SeO3
  Si(cr)         -148.99    -85.80   63.19  Si
  Siderite        -14.50    -25.18  -10.68  Fe(CO3)
  Siderophyllite  -27.33     13.27   40.60  KFe2Al3Si2O10(OH)2
  SiO2(am)         -0.70     -3.41   -2.71  SiO2
  Smectite          1.52      6.78    5.26  Na0.409K0.024Ca0.009(Si3.738Al0.262)(Al1.598Mg0.214Fe0.173Fe0.035)O10(OH)2
  Smectite_MX80(3.989H2O)   5.03      6.78    1.75  (Ca0.009Na0.409K0.024)(Si3.738Al0.262)(Al1.598Fe0.173Fe0.035Mg0.214)O10(OH)2:3.989H2O
  Smectite_MX80(5.189H2O)   5.37      6.78    1.41  (Ca0.009Na0.409K0.024)(Si3.738Al0.262)(Al1.598Fe0.173Fe0.035Mg0.214)O10(OH)2:5.189H2O
  SO2(g)          -55.37    -64.31   -8.94  SO2
  Sr(cr)         -129.50    -30.71   98.79  Sr
  Sr(NO3)2(cr)    -16.28    -15.88    0.40  Sr(NO3)2
  Sr(NO3)2:2H2O(s) -15.93    -15.88    0.05  Sr(NO3)2:2H2O
  Sr(NO3)2:4H2O(s) -15.01    -15.88   -0.87  Sr(NO3)2:4H2O
  Sr(OH)2(s)      -17.02     10.49   27.51  Sr(OH)2
  Sr(OH)2:8H2O(s) -13.83     10.49   24.32  Sr(OH)2:8H2O
  Sr(SeO3)(cr)    -18.72    -25.02   -6.30  Sr(SeO3)
  Sr(SeO4)(s)      -7.51    -11.86   -4.35  Sr(SeO4)
  Sr2SiO4(s)      -25.69     17.56   43.25  Sr2SiO4
  SrMoO4(s)        -4.62    -11.21   -6.59  SrMoO4
  SrO(cr)         -31.49     10.49   41.98  SrO
  SrS(s)         -154.77   -140.09   14.68  SrS
  SrSiO3(s)        -6.08      7.08   13.16  SrSiO3
  Stellerite        2.81      9.73    6.92  Ca2Al4Si14O36:14H2O
  Stibnite       -460.94   -516.97  -56.03  Sb2S3
  Stilbite          2.26     25.23   22.97  NaCa2(Al5Si13)O36:16H2O
  Stratlingite    -11.11     38.55   49.66  Ca2Al2SiO3(OH)8:4H2O
  Strontianite     -1.79    -11.06   -9.27  Sr(CO3)
  Sudoite           6.81     44.74   37.93  Mg2Al4Si3O10(OH)8
  Syngenite       -10.05    -17.50   -7.45  K2Ca(SO4)2:6H2O
  Talc             -2.55     22.37   24.92  Mg3Si4O10(OH)2
  Thenardite      -10.43    -10.79   -0.36  Na2SO4
  Thermonatrite   -13.33    -12.85    0.48  Na2(CO3):H2O
  Tobermorite-11A -19.83     45.75   65.58  Ca5Si6O16.5(OH):5H2O
  Tobermorite-14A -17.19     45.75   62.94  Ca5Si6O16.5(OH):10H2O
  Troilite       -150.22   -154.21   -3.99  FeS
  Trona           -18.67    -30.05  -11.38  Na3H(CO3)2:2H2O
  Truscottite     -25.29     51.79   77.08  Ca7Si12O29(OH)4:H2O
  Valentinite     -56.75    -65.23   -8.48  Sb2O3
  Vaterite         -0.41     -8.31   -7.90  CaCO3
  Vermiculite-Ca   -1.90     37.65   39.55  Ca0.43Mg3Si3.14Al0.86O10(OH)2
  Vermiculite-K    -1.94     35.50   37.44  K0.86Mg3.00Si3.14Al0.86O10(OH)2
  Vermiculite-Mg   -0.92     37.12   38.04  Mg0.43Mg3Si3.14Al0.86O10(OH)2
  Vermiculite-Na   -2.69     35.70   38.39  Na0.86Mg3.00Si3.14Al0.86O10(OH)2
  Vermiculite_SO   -7.84     38.04   45.88  (Ca0.445)(Si2.778Al1.222)(Al0.216Fe0.226Fe0.028Mg2.475)O10(OH)2
  Wairakite         0.67     15.09   14.42  CaAl2Si4O12:2H2O
  Xonotlite       -32.35     58.99   91.34  Ca6Si6O17(OH)2
  Zeolite_CaP      -1.34     43.81   45.15  Ca2Al4Si4O16:9H2O

**For a gas, SI = log10(fugacity). Fugacity = pressure * phi / 1 atm.
  For ideal gases, phi = 1.

------------------
End of simulation.
------------------

------------------------------------
Reading input data for simulation 4.
------------------------------------

	KINETICS 1 
	Goethite
	m0 0.001
	steps 259200 in 1
	tol 1e-08
	bad_step_max 1000
	END
------------------
End of simulation.
------------------

------------------------------------
Reading input data for simulation 5.
------------------------------------

	SURFACE 1
	Hfo_sOH	Goethite kinetic_reactant 0.005 600
	Hfo_wOH	Goethite kinetic_reactant 0.2
	equilibrate 1
	donnan
	END
------------------------------------------------------
Beginning of initial surface-composition calculations.
------------------------------------------------------

Surface 1.	

WARNING: -diffuse_layer option not tested for SIT model
Diffuse Double Layer Surface-Complexation Model

Hfo           
	 -1.475e-19  Surface + diffuse layer charge, eq
	  7.410e-09  Surface charge, eq
	  1.192e-03  sigma, C/m²
	  7.469e-03  psi, V
	 -2.907e-01  -F*psi/RT
	  7.477e-01  exp(-F*psi/RT)
	  6.000e+02  specific area, m²/mol Goethite
	  6.000e-01  m² for   1.000e-03 moles of Goethite

	Water in diffuse layer: 6.000e-06 kg, 100.0% of total DDL-water.

	Total moles in diffuse layer (excluding water), Donnan calculation.
	Donnan Layer potential, psi_DL =  3.282e-03 V.
	Boltzmann factor, exp(-psi_DL * F / RT) = 8.801e-01 (= c_DL / c_free if z is +1).

	Element       	     Moles
	Al            	  7.8631e-13
	C             	  6.5363e-09
	Ca            	  6.1645e-09
	Fe            	  7.2619e-13
	H             	  1.5928e-08
	K             	  5.2803e-10
	Mg            	  3.4752e-10
	Mo            	  4.2670e-11
	N             	  6.8175e-11
	Na            	  8.9773e-10
	O             	  6.2745e-08
	S             	  7.5361e-09
	Sb            	  1.3804e-13
	Se            	  9.9282e-12
	Si            	  2.4071e-09
	Sr            	  1.0784e-11

Hfo_s         
	  5.000e-06  moles	[0.005 mol/(mol kinetic reactant Goethite)]
	                                   Mole                     Log
	Species               Moles    Fraction    Molality    Molality

	Hfo_sOHCa+2       4.845e-06       0.969   4.845e-06      -5.315
	Hfo_sOH           1.080e-07       0.022   1.080e-07      -6.967
	Hfo_sO-           2.412e-08       0.005   2.412e-08      -7.618
	Hfo_sOH2+         1.107e-08       0.002   1.107e-08      -7.956
	Hfo_sOHSr+2       9.347e-09       0.002   9.347e-09      -8.029
	Hfo_sOHMoO4-2     1.092e-09       0.000   1.092e-09      -8.962
	Hfo_sOHSO4-2      7.789e-10       0.000   7.788e-10      -9.109
	Hfo_sOH2SeO4-     4.603e-10       0.000   4.603e-10      -9.337
	Hfo_sSO4-         4.003e-11       0.000   4.003e-11     -10.398
	Hfo_sOMo(OH)5     1.381e-11       0.000   1.381e-11     -10.860
	Hfo_sOHSeO3-2     1.649e-21       0.000   1.649e-21     -20.783
	Hfo_sSeO3-        2.871e-22       0.000   2.871e-22     -21.542

Hfo_w         
	  2.000e-04  moles	[0.2 mol/(mol kinetic reactant Goethite)]
	                                   Mole                     Log
	Species               Moles    Fraction    Molality    Molality

	Hfo_wOH           1.041e-04       0.520   1.041e-04      -3.983
	Hfo_wO-           2.325e-05       0.116   2.325e-05      -4.634
	Hfo_wCO3-         2.025e-05       0.101   2.025e-05      -4.694
	Hfo_wOMg+         1.379e-05       0.069   1.379e-05      -4.861
	Hfo_wOCa+         1.344e-05       0.067   1.344e-05      -4.872
	Hfo_wHCO3         1.223e-05       0.061   1.223e-05      -4.913
	Hfo_wOH2+         1.067e-05       0.053   1.067e-05      -4.972
	Hfo_wOHMoO4-2     1.052e-06       0.005   1.052e-06      -5.978
	Hfo_wOHSO4-2      7.506e-07       0.004   7.506e-07      -6.125
	Hfo_wOH2SeO4-     4.436e-07       0.002   4.436e-07      -6.353
	Hfo_wSO4-         3.858e-08       0.000   3.858e-08      -7.414
	Hfo_wOMo(OH)5     1.331e-08       0.000   1.331e-08      -7.876
	Hfo_wOSr+         4.402e-09       0.000   4.402e-09      -8.356
	Hfo_wOSrOH        7.993e-12       0.000   7.993e-12     -11.097
	Hfo_wOHSeO3-2     1.589e-18       0.000   1.589e-18     -17.799
	Hfo_wSeO3-        2.767e-19       0.000   2.767e-19     -18.558

------------------
End of simulation.
------------------

------------------------------------
Reading input data for simulation 6.
------------------------------------

	USE solution 1
	USE kinetics 1
	USE surface 1
	END
-----------------------------------------
Beginning of batch-reaction calculations.
-----------------------------------------

Reaction step 1.

WARNING: -diffuse_layer option not tested for SIT model
WARNING: -diffuse_layer option not tested for SIT model
Using solution 1.	Solution after simulation 3.
Using surface 1.	
Using kinetics 1.	

Kinetics 1.	

	Time step: 259200 seconds

	Rate name       Delta Moles Total Moles   Reactant        Coefficient

	Goethite         -0.000e+00   1.000e-03   Goethite                  1

------------------------------Surface composition------------------------------

Diffuse Double Layer Surface-Complexation Model

Hfo           
	 -1.469e-19  Surface + diffuse layer charge, eq
	  7.410e-09  Surface charge, eq
	  1.192e-03  sigma, C/m²
	  7.469e-03  psi, V
	 -2.907e-01  -F*psi/RT
	  7.477e-01  exp(-F*psi/RT)
	  6.000e+02  specific area, m²/mol Goethite
	  6.000e-01  m² for   1.000e-03 moles of Goethite

	Water in diffuse layer: 6.000e-06 kg, 100.0% of total DDL-water.

	Total moles in diffuse layer (excluding water), Donnan calculation.
	Donnan Layer potential, psi_DL =  3.282e-03 V.
	Boltzmann factor, exp(-psi_DL * F / RT) = 8.801e-01 (= c_DL / c_free if z is +1).

	Element       	     Moles
	Al            	  7.8631e-13
	C             	  6.5363e-09
	Ca            	  6.1645e-09
	Fe            	  7.2619e-13
	H             	  1.5928e-08
	K             	  5.2803e-10
	Mg            	  3.4752e-10
	Mo            	  4.2670e-11
	N             	  6.8175e-11
	Na            	  8.9773e-10
	O             	  6.2745e-08
	S             	  7.5361e-09
	Sb            	  1.3804e-13
	Se            	  9.9282e-12
	Si            	  2.4071e-09
	Sr            	  1.0784e-11

Hfo_s         
	  5.000e-06  moles	[0.005 mol/(mol kinetic reactant Goethite)]
	                                   Mole                     Log
	Species               Moles    Fraction    Molality    Molality

	Hfo_sOHCa+2       4.845e-06       0.969   4.845e-06      -5.315
	Hfo_sOH           1.080e-07       0.022   1.080e-07      -6.967
	Hfo_sO-           2.412e-08       0.005   2.412e-08      -7.618
	Hfo_sOH2+         1.107e-08       0.002   1.107e-08      -7.956
	Hfo_sOHSr+2       9.347e-09       0.002   9.347e-09      -8.029
	Hfo_sOHMoO4-2     1.092e-09       0.000   1.092e-09      -8.962
	Hfo_sOHSO4-2      7.789e-10       0.000   7.788e-10      -9.109
	Hfo_sOH2SeO4-     4.603e-10       0.000   4.603e-10      -9.337
	Hfo_sSO4-         4.003e-11       0.000   4.003e-11     -10.398
	Hfo_sOMo(OH)5     1.381e-11       0.000   1.381e-11     -10.860
	Hfo_sOHSeO3-2     1.649e-21       0.000   1.649e-21     -20.783
	Hfo_sSeO3-        2.871e-22       0.000   2.871e-22     -21.542

Hfo_w         
	  2.000e-04  moles	[0.2 mol/(mol kinetic reactant Goethite)]
	                                   Mole                     Log
	Species               Moles    Fraction    Molality    Molality

	Hfo_wOH           1.041e-04       0.520   1.041e-04      -3.983
	Hfo_wO-           2.325e-05       0.116   2.325e-05      -4.634
	Hfo_wCO3-         2.025e-05       0.101   2.025e-05      -4.694
	Hfo_wOMg+         1.379e-05       0.069   1.379e-05      -4.861
	Hfo_wOCa+         1.344e-05       0.067   1.344e-05      -4.872
	Hfo_wHCO3         1.223e-05       0.061   1.223e-05      -4.913
	Hfo_wOH2+         1.067e-05       0.053   1.067e-05      -4.972
	Hfo_wOHMoO4-2     1.052e-06       0.005   1.052e-06      -5.978
	Hfo_wOHSO4-2      7.506e-07       0.004   7.506e-07      -6.125
	Hfo_wOH2SeO4-     4.436e-07       0.002   4.436e-07      -6.353
	Hfo_wSO4-         3.858e-08       0.000   3.858e-08      -7.414
	Hfo_wOMo(OH)5     1.331e-08       0.000   1.331e-08      -7.876
	Hfo_wOSr+         4.402e-09       0.000   4.402e-09      -8.356
	Hfo_wOSrOH        7.993e-12       0.000   7.993e-12     -11.097
	Hfo_wOHSeO3-2     1.589e-18       0.000   1.589e-18     -17.799
	Hfo_wSeO3-        2.767e-19       0.000   2.767e-19     -18.558

-----------------------------Solution composition------------------------------

	Elements           Molality       Moles

	Al                1.156e-07   1.156e-07
	C                 9.627e-04   9.627e-04
	Ca                1.289e-03   1.289e-03
	Fe                1.211e-07   1.211e-07
	K                 1.000e-04   1.000e-04
	Mg                7.303e-05   7.303e-05
	Mo                5.508e-06   5.508e-06
	N                 1.000e-05   1.000e-05
	Na                1.700e-04   1.700e-04
	S                 1.000e-03   1.000e-03
	Sb                2.025e-08   2.025e-08
	Se                1.301e-06   1.301e-06
	Si                4.000e-04   4.000e-04
	Sr                2.259e-06   2.259e-06

----------------------------Description of solution----------------------------

                                       pH  =   8.153      Charge balance
                                       pe  =  12.445      Adjusted to redox equilibrium
                        Activity of water  =   1.000
                 Ionic strength (mol/kgw)  =   4.849e-03
                       Mass of water (kg)  =   1.000e+00
                 Total alkalinity (eq/kg)  =   9.760e-04
                       Total CO2 (mol/kg)  =   9.627e-04
                         Temperature (°C)  =  25.00
                  Electrical balance (eq)  =  -1.690e-15
 Percent error, 100*(Cat-|An|)/(Cat+|An|)  =  -0.00
                               Iterations  =   5 (19 overall)
                         Gamma iterations  =   1
                      Osmotic coefficient  =   0.94484
                                  Total H  = 1.110225e+02
                                  Total O  = 5.551905e+01

----------------------------Distribution of species----------------------------

                                               Log       Log       Log    mole V
   Species          Molality    Activity  Molality  Activity     Gamma   cm³/mol

   OH-             1.531e-06   1.422e-06    -5.815    -5.847    -0.032     (0)  
   H+              7.574e-09   7.034e-09    -8.121    -8.153    -0.032      0.00
   H2O             5.551e+01   9.999e-01     1.744    -0.000     0.000     18.07
Al            1.156e-07
   Al(OH)4-        1.135e-07   1.054e-07    -6.945    -6.977    -0.032     (0)  
   Al(OH)3         2.089e-09   2.089e-09    -8.680    -8.680     0.000     (0)  
   Al(OH)2+        1.095e-11   1.017e-11   -10.961   -10.993    -0.032     (0)  
   NaAl(OH)4       2.889e-12   2.889e-12   -11.539   -11.539     0.000     (0)  
   Al(OH)+2        4.103e-14   3.051e-14   -13.387   -13.516    -0.129     (0)  
   AlH3SiO4+2      5.962e-15   4.434e-15   -14.225   -14.353    -0.129     (0)  
   Al+3            3.725e-17   1.913e-17   -16.429   -16.718    -0.289     (0)  
   Al(SO4)+        1.992e-17   1.850e-17   -16.701   -16.733    -0.032     (0)  
C(-4)         0.000e+00
   CH4             0.000e+00   0.000e+00  -148.400  -148.400     0.000     (0)  
   CH3-            0.000e+00   0.000e+00  -186.215  -186.247    -0.032     (0)  
C(4)          9.627e-04
   HCO3-           9.224e-04   8.566e-04    -3.035    -3.067    -0.032     (0)  
   CO2             1.349e-05   1.349e-05    -4.870    -4.870     0.000     (0)  
   Ca(HCO3)+       9.985e-06   9.272e-06    -5.001    -5.033    -0.032     (0)  
   CaCO3           8.128e-06   8.128e-06    -5.090    -5.090     0.000     (0)  
   CO3-2           7.660e-06   5.696e-06    -5.116    -5.244    -0.129     (0)  
   Mg(HCO3)+       5.018e-07   4.660e-07    -6.299    -6.332    -0.032     (0)  
   Mg(CO3)         2.699e-07   2.699e-07    -6.569    -6.569     0.000     (0)  
   Fe(OH)CO3       1.175e-07   1.175e-07    -6.930    -6.930     0.000     (0)  
   Na(HCO3)        7.598e-08   7.598e-08    -7.119    -7.119     0.000     (0)  
   Sr(HCO3)+       2.112e-08   1.961e-08    -7.675    -7.707    -0.032     (0)  
   Na(CO3)-        1.802e-08   1.673e-08    -7.744    -7.776    -0.032     (0)  
   Sr(CO3)         5.564e-09   5.564e-09    -8.255    -8.255     0.000     (0)  
   Fe(CO3)3-3      1.042e-12   5.351e-13   -11.982   -12.272    -0.289     (0)  
   FeCO3           1.237e-20   1.237e-20   -19.907   -19.907     0.000     (0)  
   Fe(CO3)2-2      5.582e-24   4.151e-24   -23.253   -23.382    -0.129     (0)  
   CO              0.000e+00   0.000e+00   -51.145   -51.145     0.000     (0)  
Ca            1.289e-03
   Ca+2            1.156e-03   8.598e-04    -2.937    -3.066    -0.129     (0)  
   Ca(SO4)         1.148e-04   1.148e-04    -3.940    -3.940     0.000     (0)  
   Ca(HCO3)+       9.985e-06   9.272e-06    -5.001    -5.033    -0.032     (0)  
   CaCO3           8.128e-06   8.128e-06    -5.090    -5.090     0.000     (0)  
   Ca(SeO4)        7.774e-08   7.774e-08    -7.109    -7.109     0.000     (0)  
   Ca(H3SiO4)+     7.615e-08   7.072e-08    -7.118    -7.150    -0.032     (0)  
   Ca(OH)+         2.185e-08   2.029e-08    -7.661    -7.693    -0.032     (0)  
   Ca(NH3)+2       0.000e+00   0.000e+00   -71.102   -71.231    -0.129     (0)  
   Ca(NH3)2+2      0.000e+00   0.000e+00  -139.767  -139.896    -0.129     (0)  
   Ca(S2O3)        0.000e+00   0.000e+00  -150.600  -150.600     0.000     (0)  
   Ca(NH3)3+2      0.000e+00   0.000e+00  -208.632  -208.761    -0.129     (0)  
   Ca(NH3)4+2      0.000e+00   0.000e+00  -277.797  -277.926    -0.129     (0)  
Fe(2)         3.118e-20
   Fe+2            1.569e-20   1.167e-20   -19.804   -19.933    -0.129     (0)  
   FeCO3           1.237e-20   1.237e-20   -19.907   -19.907     0.000     (0)  
   Fe(SO4)         2.101e-21   2.101e-21   -20.677   -20.677     0.000     (0)  
   Fe(OH)+         1.004e-21   9.327e-22   -20.998   -21.030    -0.032     (0)  
   Fe(CO3)2-2      5.582e-24   4.151e-24   -23.253   -23.382    -0.129     (0)  
   Fe(SeO4)        5.410e-24   5.410e-24   -23.267   -23.267     0.000     (0)  
   Fe(OH)2         3.408e-25   3.408e-25   -24.467   -24.467     0.000     (0)  
   Fe(OH)3-        5.217e-30   4.845e-30   -29.283   -29.315    -0.032     (0)  
   Fe(OH)4-2       3.067e-34   2.281e-34   -33.513   -33.642    -0.129     (0)  
   Fe(NH3)+2       0.000e+00   0.000e+00   -86.569   -86.698    -0.129     (0)  
   Fe(NH3)2+2      0.000e+00   0.000e+00  -153.834  -153.963    -0.129     (0)  
   Fe(HS)+         0.000e+00   0.000e+00  -157.988  -158.020    -0.032     (0)  
   Fe(NH3)4+2      0.000e+00   0.000e+00  -288.464  -288.593    -0.129     (0)  
   Fe(HS)2         0.000e+00   0.000e+00  -298.338  -298.338     0.000     (0)  
Fe(3)         1.211e-07
   Fe(OH)CO3       1.175e-07   1.175e-07    -6.930    -6.930     0.000     (0)  
   Fe(OH)3         2.291e-09   2.291e-09    -8.640    -8.640     0.000     (0)  
   Fe(OH)2+        9.986e-10   9.273e-10    -9.001    -9.033    -0.032     (0)  
   Fe(OH)4-        3.198e-10   2.970e-10    -9.495    -9.527    -0.032     (0)  
   Fe(CO3)3-3      1.042e-12   5.351e-13   -11.982   -12.272    -0.289     (0)  
   Fe(OH)+2        3.918e-15   2.914e-15   -14.407   -14.536    -0.129     (0)  
   Fe(H3SiO4)+2    4.959e-16   3.688e-16   -15.305   -15.433    -0.129     (0)  
   Fe(SO4)+        3.626e-20   3.367e-20   -19.441   -19.473    -0.032     (0)  
   Fe+3            5.637e-21   2.895e-21   -20.249   -20.538    -0.289     (0)  
   Fe(SO4)2-       2.213e-21   2.055e-21   -20.655   -20.687    -0.032     (0)  
   Fe(NO3)+2       3.222e-25   2.396e-25   -24.492   -24.620    -0.129     (0)  
   Fe2(OH)2+4      8.383e-28   2.564e-28   -27.077   -27.591    -0.515     (0)  
   Fe(SeO3)+       2.787e-29   2.588e-29   -28.555   -28.587    -0.032     (0)  
   Fe3(OH)4+5      3.163e-35   4.967e-36   -34.500   -35.304    -0.804     (0)  
   Fe(HSeO3)+2     3.879e-36   2.885e-36   -35.411   -35.540    -0.129     (0)  
   FeS2O3+         0.000e+00   0.000e+00  -165.491  -165.523    -0.032     (0)  
H(0)          0.000e+00
   H2              0.000e+00   0.000e+00   -44.275   -44.275     0.000     (0)  
K             1.000e-04
   K+              1.000e-04   9.286e-05    -4.000    -4.032    -0.032     (0)  
Mg            7.303e-05
   Mg+2            6.671e-05   4.961e-05    -4.176    -4.304    -0.129     (0)  
   Mg(SO4)         5.510e-06   5.510e-06    -5.259    -5.259     0.000     (0)  
   Mg(HCO3)+       5.018e-07   4.660e-07    -6.299    -6.332    -0.032     (0)  
   Mg(CO3)         2.699e-07   2.699e-07    -6.569    -6.569     0.000     (0)  
   Mg(OH)+         1.587e-08   1.474e-08    -7.799    -7.832    -0.032     (0)  
   Mg(H3SiO4)+     7.813e-09   7.256e-09    -8.107    -8.139    -0.032     (0)  
   Mg(SeO4)        7.109e-09   7.109e-09    -8.148    -8.148     0.000     (0)  
   Mg4(OH)4+4      1.439e-24   4.400e-25   -23.842   -24.357    -0.515     (0)  
   Mg(NH3)+2       0.000e+00   0.000e+00   -72.141   -72.269    -0.129     (0)  
   Mg(NH3)2+2      0.000e+00   0.000e+00  -140.306  -140.434    -0.129     (0)  
   Mg(S2O3)        0.000e+00   0.000e+00  -151.369  -151.369     0.000     (0)  
   Mg(NH3)3+2      0.000e+00   0.000e+00  -208.671  -208.799    -0.129     (0)  
   Mg(NH3)4+2      0.000e+00   0.000e+00  -277.436  -277.564    -0.129     (0)  
Mo            5.508e-06
   MoO4-2          5.508e-06   4.096e-06    -5.259    -5.388    -0.129     (0)  
   HMoO4-          3.997e-10   3.711e-10    -9.398    -9.430    -0.032     (0)  
   H2MoO4          2.862e-14   2.862e-14   -13.543   -13.543     0.000     (0)  
   Mo2O5(OH)+      3.111e-33   2.889e-33   -32.507   -32.539    -0.032     (0)  
   Mo7O24-6        0.000e+00   0.000e+00   -51.428   -52.586    -1.158     (0)  
   Mo7O23(OH)-5    0.000e+00   0.000e+00   -53.075   -53.879    -0.804     (0)  
   Mo7O22(OH)2-4   0.000e+00   0.000e+00   -56.017   -56.531    -0.515     (0)  
   Mo7O21(OH)3-3   0.000e+00   0.000e+00   -60.625   -60.914    -0.290     (0)  
   Mo+3            0.000e+00   0.000e+00   -85.895   -86.184    -0.289     (0)  
   Mo19O59-4       0.000e+00   0.000e+00  -182.746  -183.260    -0.515     (0)  
N(-3)         0.000e+00
   NH4+            0.000e+00   0.000e+00   -66.946   -66.978    -0.032     (0)  
   NH3             0.000e+00   0.000e+00   -68.065   -68.065     0.000     (0)  
   Ca(NH3)+2       0.000e+00   0.000e+00   -71.102   -71.231    -0.129     (0)  
   Mg(NH3)+2       0.000e+00   0.000e+00   -72.141   -72.269    -0.129     (0)  
   Sr(NH3)+2       0.000e+00   0.000e+00   -74.307   -74.435    -0.129     (0)  
   Fe(NH3)+2       0.000e+00   0.000e+00   -86.569   -86.698    -0.129     (0)  
   Ca(NH3)2+2      0.000e+00   0.000e+00  -139.767  -139.896    -0.129     (0)  
   Mg(NH3)2+2      0.000e+00   0.000e+00  -140.306  -140.434    -0.129     (0)  
   Fe(NH3)2+2      0.000e+00   0.000e+00  -153.834  -153.963    -0.129     (0)  
   Ca(NH3)3+2      0.000e+00   0.000e+00  -208.632  -208.761    -0.129     (0)  
   Mg(NH3)3+2      0.000e+00   0.000e+00  -208.671  -208.799    -0.129     (0)  
   Mg(NH3)4+2      0.000e+00   0.000e+00  -277.436  -277.564    -0.129     (0)  
   Ca(NH3)4+2      0.000e+00   0.000e+00  -277.797  -277.926    -0.129     (0)  
   Fe(NH3)4+2      0.000e+00   0.000e+00  -288.464  -288.593    -0.129     (0)  
N(5)          1.000e-05
   NO3-            1.000e-05   9.286e-06    -5.000    -5.032    -0.032     (0)  
   Sr(NO3)+        6.023e-11   5.593e-11   -10.220   -10.252    -0.032     (0)  
   Sr(NO3)2        2.664e-16   2.664e-16   -15.575   -15.575     0.000     (0)  
   Fe(NO3)+2       3.222e-25   2.396e-25   -24.492   -24.620    -0.129     (0)  
Na            1.700e-04
   Na+             1.699e-04   1.577e-04    -3.770    -3.802    -0.032     (0)  
   Na(HCO3)        7.598e-08   7.598e-08    -7.119    -7.119     0.000     (0)  
   Na(CO3)-        1.802e-08   1.673e-08    -7.744    -7.776    -0.032     (0)  
   NaAl(OH)4       2.889e-12   2.889e-12   -11.539   -11.539     0.000     (0)  
   Na(S2O3)-       0.000e+00   0.000e+00  -152.044  -152.077    -0.032     (0)  
O(0)          5.024e-04
   O2              2.512e-04   2.512e-04    -3.600    -3.600     0.000     (0)  
S(-2)         0.000e+00
   HS-             0.000e+00   0.000e+00  -142.395  -142.427    -0.032     (0)  
   H2S             0.000e+00   0.000e+00  -143.590  -143.590     0.000     (0)  
   S-2             0.000e+00   0.000e+00  -151.246  -151.374    -0.129     (0)  
   Fe(HS)+         0.000e+00   0.000e+00  -157.988  -158.020    -0.032     (0)  
   S2-2            0.000e+00   0.000e+00  -254.071  -254.199    -0.129     (0)  
   Fe(HS)2         0.000e+00   0.000e+00  -298.338  -298.338     0.000     (0)  
   S3-2            0.000e+00   0.000e+00  -359.426  -359.555    -0.129     (0)  
   S4-2            0.000e+00   0.000e+00  -465.881  -466.010    -0.129     (0)  
   S5-2            0.000e+00   0.000e+00  -572.556  -572.685    -0.129     (0)  
   Sb2HS4-         0.000e+00   0.000e+00  -606.462  -606.494    -0.032     (0)  
   Sb2S4-2         0.000e+00   0.000e+00  -607.733  -607.862    -0.129     (0)  
   Sb2H2S4         0.000e+00   0.000e+00  -609.737  -609.737     0.000     (0)  
S(2)          0.000e+00
   S2O3-2          0.000e+00   0.000e+00  -148.756  -148.884    -0.129     (0)  
   Ca(S2O3)        0.000e+00   0.000e+00  -150.600  -150.600     0.000     (0)  
   Mg(S2O3)        0.000e+00   0.000e+00  -151.369  -151.369     0.000     (0)  
   Na(S2O3)-       0.000e+00   0.000e+00  -152.044  -152.077    -0.032     (0)  
   Sr(S2O3)        0.000e+00   0.000e+00  -152.665  -152.665     0.000     (0)  
   H(S2O3)-        0.000e+00   0.000e+00  -155.285  -155.317    -0.032     (0)  
   H2(S2O3)        0.000e+00   0.000e+00  -162.870  -162.870     0.000     (0)  
   FeS2O3+         0.000e+00   0.000e+00  -165.491  -165.523    -0.032     (0)  
S(3)          0.000e+00
   S2O4-2          0.000e+00   0.000e+00  -135.431  -135.559    -0.129     (0)  
   HS2O4-          0.000e+00   0.000e+00  -141.180  -141.212    -0.032     (0)  
   H2S2O4          0.000e+00   0.000e+00  -149.065  -149.065     0.000     (0)  
S(4)          0.000e+00
   SO3-2           0.000e+00   0.000e+00   -47.871   -47.999    -0.129     (0)  
[...]
  Antigorite      -39.69    460.19  499.89  Mg48Si34O85(OH)62
  Aragonite        -0.00     -8.31   -8.31  CaCO3
  Arcanite         -9.40    -11.25   -1.85  K2SO4
  Artinite         -7.36      2.45    9.81  Mg2(CO3)(OH)2:3H2O
  Bassanite        -2.33     -6.25   -3.92  CaSO4:0.5H2O
  Beidellite-Ca     2.12      7.89    5.77  Ca0.17Al2.34Si3.66O10(OH)2
  Beidellite-K      2.44      7.04    4.60  K0.34Al2.34Si3.66O10(OH)2
  Beidellite-Mg     2.45      7.68    5.23  Mg0.17Al2.34Si3.66O10(OH)2
  Beidellite-Na     2.02      7.12    5.10  Na0.34Al2.34Si3.66O10(OH)2
  Beidellite_SBld-1   1.96      9.54    7.58  Ca0.185K0.104(Si3.574Al0.426)(Al1.812Mg0.090Fe0.112)O10(OH)2
  Beidellite_SBld-1(4.576H2O)   5.28      9.54    4.26  Ca0.185K0.104Si3.574Al2.238Mg0.090Fe0.112O10(OH)2:4.576H2O
  Berthierine(FeII) -29.79      4.82   34.61  (Fe2Al)(SiAl)O5(OH)4
  Berthierine(FeIII) -32.95     -4.10   28.85  (Fe2.34Fe0.33Al0.33)(Si1.34Al0.66)O5(OH)4
  Berthierine_ISGS -22.38      5.56   27.94  (Si1.332Al0.668)(Al0.976Fe0.182Fe1.44Mg0.157)O5(OH)4
  Berthierine_Lorraine   7.86      8.87    1.01  Fe0.608Fe0.936Mg0.37Al1.052Si1.52O5(OH)4
  Bloedite        -15.93    -18.28   -2.35  Na2Mg(SO4)2:4H2O
  Boehmite          0.12      7.74    7.62  AlO(OH)
  Brucite          -5.10     12.00   17.10  Mg(OH)2
  Burkeite        -33.66    -34.43   -0.77  Na6(CO3)(SO4)2
  C(cr)           -71.79   -103.94  -32.15  C
  C2SH(alpha)     -12.47     23.07   35.54  Ca2(HSiO4)(OH)
  C3AH6           -25.12     55.20   80.32  Ca3Al2(OH)12
  C3FH6           -24.77     47.56   72.33  Ca3Fe2(OH)12
  C4AH13          -35.21     68.44  103.65  Ca4Al2(OH)14:6H2O
  C4FH13          -34.28     60.80   95.08  Ca4Fe2(OH)14:6H2O
  Ca(cr)         -124.81    -27.95   96.85  Ca
  Ca(NO3)2(s)     -19.02    -13.13    5.89  Ca(NO3)2
  Ca(SeO3):H2O(s) -15.86    -22.26   -6.40  Ca(SeO3):H2O
  Ca(SeO4):2H2O(s)  -6.43     -9.11   -2.68  Ca(SeO4):2H2O
  Ca(SO3)(s)      -44.57    -51.07   -6.50  Ca(SO3)
  Ca2Fe2O5(s)     -22.42     34.32   56.74  Ca2Fe2O5
  CaCO3:H2O(s)     -0.71     -8.31   -7.60  CaCO3:H2O
  CaFe2O4(s)       -0.16     21.08   21.24  CaFe2O4
  Calcite           0.17     -8.31   -8.48  CaCO3
  CaMg3(CO3)4(s)   -6.15    -36.96  -30.81  CaMg3(CO3)4
  CaMgSr(CO3)2      0.00      2.75    2.75  CaMg0.97Sr0.03(MoO4)0.00011(Sb(OH)6)0.0000033(SeO3)0.00001(CO3)1.9998767
  CaMoO4(s)        -0.55     -8.45   -7.90  CaMoO4
  CaO(cr)         -19.46     13.24   32.70  CaO
  Celadonite-Fe   -11.85     -5.40    6.45  KFeAlSi4O10(OH)2
  Celadonite-Mg     0.03     10.23   10.20  KMgAlSi4O10(OH)2
  Celestite        -2.38     -9.00   -6.62  Sr(SO4)
  CH4(g)         -145.28   -186.33  -41.05  CH4
  Chabazite         3.57     15.09   11.52  CaAl2Si4O12:6H2O
  Chamosite       -60.56    -12.88   47.68  Fe5Al2Si3O10(OH)8
  Chukanovite     -31.77    -28.80    2.97  Fe2(OH)2CO3
  Clinochlore       3.58     65.26   61.68  Mg5Al2Si3O10(OH)8
  Clinoptilolite_Ca   1.45     -0.90   -2.35  Ca0.55(Si4.9Al1.1)O12:3.9H2O
  Clinoptilolite_K  -2.42     -3.65   -1.23  K1.1(Si4.9Al1.1)O12:2.7H2O
  Clinoptilolite_Na  -3.31     -3.40   -0.09  Na1.1(Si4.9Al1.1)O12:3.5H2O
  CO(g)           -48.11    -62.75  -14.64  CO
  CO2(g)           -3.40    -21.55  -18.15  CO2
  Corundum         -2.82     15.48   18.30  Al2O3
  Cristobalite     -0.25     -3.41   -3.16  SiO2
  Cronstedtite-Th -18.93     -2.82   16.11  Fe4SiO5(OH)4
  CSH0.8           -3.87      7.18   11.05  Ca0.8SiO2.8:1.54H2O
  CSH1.2           -6.82     12.48   19.30  Ca1.2SiO3.2:2.06H2O
  CSH1.6          -10.22     17.78   28.00  Ca1.6SiO3.6:2.58H2O
  Dawsonite        -3.46     -9.46   -6.00  NaAl(CO3)(OH)2
  Diaspore          0.87      7.74    6.87  AlO(OH)
  Dickite          -0.73      8.66    9.39  Al2Si2O5(OH)4
  Dolomite         -0.73    -17.86  -17.13  CaMg(CO3)2
  Downeyite       -27.35    -35.50   -8.15  SeO2
  Eastonite        -1.77     44.53   46.30  KMg2Al3Si2O10(OH)2
  Epsonite         -5.61     -7.49   -1.88  Mg(SO4):7H2O
  Ettringite      -20.52     36.45   56.97  Ca6Al2(SO4)3(OH)12:26H2O
  Ettringite-Fe   -25.74     28.81   54.55  Ca6Fe2(SO4)3(OH)12:26H2O
  Fayalite        -30.21    -10.66   19.55  Fe2(SiO4)
  Fe(alpha,cr)    -60.71    -44.82   15.89  Fe
  Fe(OH)2(cr)     -16.41     -3.63   12.78  Fe(OH)2
  Fe0.932O(s)     -14.09     -0.58   13.51  Fe0.932O
  Fe1.04Se(beta) -107.60   -110.98   -3.38  Fe1.04Se
  Fe2(SeO3)3:6H2O(s) -57.09    -98.67  -41.58  Fe2(SeO3)3:6H2O
  Fe3O4(s)         -8.39      4.21   12.60  Fe3O4
  Fe3Se4(gamma)  -366.39   -391.92  -25.53  Fe3Se4
  Fe7Se8(alfa)   -793.23   -828.67  -35.44  Fe7Se8
  FeAl2O4(s)      -15.35     11.85   27.20  FeAl2O4
  FeMoO4(s)       -17.00    -25.32   -8.32  FeMoO4
  FeO(s)          -17.02     -3.63   13.39  FeO
  Ferrihydrite(am)  -0.00      3.92    3.92  Fe(OH)3
  Ferrihydrite(cr)   2.70      3.92    1.22  Fe(OH)3
  Ferrihydrite(s)   1.14      3.92    2.78  Fe(OH)3
  Ferroselite    -156.45   -173.55  -17.10  FeSe2
  Ferrosilite     -39.75     -7.04   32.71  FeSiO3
  FeS(am)        -151.26   -154.21   -2.95  FeS
  Foshagite       -23.22     42.74   65.96  Ca4Si3O9(OH)2:0.5H2O
  Gaylussite      -11.73    -21.16   -9.43  CaNa2(CO3)2:5H2O
  Gibbsite          0.00      7.74    7.74  Al(OH)3
  Gismondine        4.84     43.81   38.97  Ca2Al4Si4O16:9H2O
  Glaserite       -36.92    -44.53   -7.61  Na2K6(SO4)4
  Glauberite      -19.01    -17.04    1.97  Na2Ca(SO4)2
  Glauconite       -0.66      1.18    1.84  (K0.75Mg0.25Fe1.5Al0.25)(Al0.25Si3.75)O10(OH)2
  Goethite          3.75      3.92    0.17  FeOOH
  GR-CO3          -57.62     -2.12   55.50  Fe4Fe2(OH)12CO3:2H2O
  GR-SO4          -58.36     -0.06   58.30  Fe4Fe2(OH)12SO4
  Greenalite      -39.52    -17.70   21.82  Fe3Si2O5(OH)4
  Greigite       -556.98   -572.01  -15.03  Fe3S4
  Gypsum           -1.64     -6.25   -4.61  CaSO4:2H2O
  Gyrolite         -6.08     16.26   22.34  Ca2Si3O7.5(OH):2H2O
  H2(g)           -41.20    -41.20    0.00  H2
  H2MoO4(s)        -8.52    -21.69  -13.17  H2MoO4
  H2O(g)           -1.50    -43.00  -41.50  H2O
  H2S(g)         -142.58   -150.58   -8.00  H2S
  Halloysite       -1.66      8.66   10.32  Al2Si2O5(OH)4
  HBeidellite-Ca    5.80      7.89    2.09  Ca0.17Al2.34Si3.66O10(OH)2:4.45H2O
  HBeidellite-K     4.82      7.04    2.22  K0.34Al2.34Si3.66O10(OH)2:1.96H2O
  HBeidellite-Mg    5.47      7.68    2.21  Mg0.17Al2.34Si3.66O10(OH)2:4.61H2O
  HBeidellite-Na    5.29      7.12    1.83  Na0.34Al2.34Si3.66O10(OH)2:3.84H2O
  Hematite(cr)      8.67      7.84   -0.83  Fe2O3
  Hematite(s)       7.94      7.84   -0.10  Fe2O3
  Hemicarboaluminate -57.87    115.33  173.20  Ca6O6:Al4O6:CaCO3:Ca(OH)2:21H2O
  Heulandite_Ca     4.89      7.35    2.46  Ca1.07Al2.14Si6.86O18:6.17H2O
  Heulandite_Na    -0.30      2.50    2.80  Na2.14Al2.14Si6.86O18:6.17H2O
  Hexahydrite      -5.85     -7.49   -1.64  Mg(SO4):6H2O
  Hillebrandite   -13.88     23.07   36.95  Ca2SiO3(OH)2:0.17H2O
  HMontmorillonite-BCCa   3.37      5.55    2.18  Ca0.17Mg0.34Al1.66Si4O10(OH)2:4.45H2O
  HMontmorillonite-BCK   2.63      4.70    2.07  K0.34Mg0.34Al1.66Si4O10(OH)2:1.96H2O
  HMontmorillonite-BCMg   3.01      5.34    2.33  Mg0.17Mg0.34Al1.66Si4O10(OH)2:4.61H2O
  HMontmorillonite-BCNa   3.01      4.78    1.77  Na0.34Mg0.34Al1.66Si4O10(OH)2:3.84H2O
  HMontmorillonite-HCCa   2.23      8.38    6.15  Ca0.3Mg0.6Al1.4Si4O10(OH)2:4.45H2O
  HMontmorillonite-HCK   2.64      6.88    4.24  K0.6Mg0.6Al1.4Si4O10(OH)2:1.96H2O
  HMontmorillonite-HCMg   1.54      8.01    6.47  Mg0.3Mg0.6Al1.4Si4O10(OH)2:4.61H2O
  HMontmorillonite-HCNa   2.48      7.02    4.54  Na0.6Mg0.6Al1.4Si4O10(OH)2:3.84H2O
  HNontronite-Ca    4.40      1.51   -2.89  Ca0.17Fe1.67Al0.67Si3.66O10(OH)2:4.45H2O
  HNontronite-K     0.28      0.66    0.38  K0.34Fe1.67Al0.67Si3.66O10(OH)2:1.96H2O
  HNontronite-Mg    3.89      1.30   -2.59  Mg0.17Fe1.67Al0.67Si3.66O10(OH)2:4.61H2O
  HNontronite-Na    3.88      0.74   -3.14  Na0.34Fe1.67Al0.67Si3.66O10(OH)2:3.84H2O
  HSaponite-Ca      0.05     28.41   28.36  Ca0.17Mg3Al0.34Si3.66O10(OH)2:4.45H2O
  HSaponite-FeCa  -15.18     12.79   27.97  Ca0.17Mg2FeAl0.34Si3.66O10(OH)2:4.45H2O
  HSaponite-FeK   -16.17     11.94   28.11  K0.34Mg2FeAl0.34Si3.66O10(OH)2:1.96H2O
  HSaponite-FeMg  -15.50     12.57   28.07  Mg0.17Mg2FeAl0.34Si3.66O10(OH)2:4.61H2O
  HSaponite-FeNa  -15.71     12.01   27.72  Na0.34Mg2FeAl0.34Si3.66O10(OH)2:3.84H2O
  HSaponite-K      -0.93     27.56   28.49  K0.34Mg3Al0.34Si3.66O10(OH)2:1.96H2O
  HSaponite-Mg     -0.28     28.20   28.48  Mg0.17Mg3Al0.34Si3.66O10(OH)2:4.61H2O
  HSaponite-Na     -0.39     27.64   28.03  Na0.34Mg3Al0.34Si3.66O10(OH)2:3.84H2O
  HVermiculite-Ca -60.17     37.65   97.82  Ca0.43Mg3.00Si3.14Al0.86O10(OH)2:4.45H2O
  HVermiculite-K  -52.18     35.50   87.68  K0.86Mg3.00Si3.14Al0.86O10(OH)2:1.96H2O
  HVermiculite-Mg -31.06     37.12   68.18  Mg0.43Mg3.00Si3.14Al0.86O10(OH)2:4.61H2O
  HVermiculite-Na -60.82     35.70   96.52  Na0.86Mg3.00Si3.14Al0.86O10(OH)2:3.84H2O
  Hydrotalcite    -10.26     63.48   73.74  Mg4Al2(OH)14:3H2O
  Hydrotalcite-CO3  -8.93     41.93   50.86  Mg4Al2(OH)12CO3:2H2O
  Illite-Al         1.81     14.83   13.02  K0.85Al2.85Si3.15O10(OH)2
  Illite-FeII      -0.26      9.20    9.46  K0.85Fe0.25Al2.35Si3.4O10(OH)2
  Illite-FeIII      1.51     13.87   12.36  K0.85Fe0.25Al2.6Si3.15O10(OH)2
  Illite-Mg         2.10     13.11   11.01  K0.85Mg0.25Al2.35Si3.4O10(OH)2
  Illite-Smec_ISCz-1(2.996H2O)  -3.58     10.03   13.61  (Na0.134K0.53)(Si3.565Al0.435)(Al1.717Fe0.05Fe0.017Mg0.218)O10(OH)2:2.996H2O
  Illite/smectite  -0.05     10.84   10.89  (Ca0.092K0.439)(Si3.559Al0.441)(Al1.728Fe0.011Fe0.034Mg0.255)O10(OH)2
  Illite_Imt-2     -0.21     11.31   11.52  (Na0.044K0.762)(Si3.387Al0.613)(Al1.427Fe0.292Fe0.084Mg0.241)O10(OH)2
  Jaffeite        -41.44     72.62  114.06  Ca6(Si2O7)(OH)6
  Jennite         -48.62     98.71  147.33  Ca9Si6O16(OH)10:6H2O
  K(cr)           -65.97    -16.48   49.49  K
  K(NO3)(s)        -8.96     -9.06   -0.10  K(NO3)
  K(OH)(s)        -20.48      4.12   24.60  K(OH)
  K-carbonate     -16.34    -13.31    3.03  K2CO3:1.5H2O
  K-trona         -21.41    -30.51   -9.10  K2NaH(CO3)2:2H2O
  K2CO3(cr)       -18.72    -13.31    5.41  K2CO3
  K2O(s)          -75.87      8.24   84.11  K2O
  KAl(OH)4        -12.36     11.86   24.22  KAl(OH)4
  KAl(SO4)2(s)    -30.86    -27.12    3.74  KAl(SO4)2
  KAl(SO4)2:12H2O(s) -20.44    -27.12   -6.68  KAl(SO4)2:12H2O
  Kalicinite       -7.37    -17.43  -10.06  KHCO3
  Kaolinite         2.16      8.66    6.50  Al2(Si2O5)(OH)4
  Katoite         -19.37     51.79   71.16  Ca3Al2(SiO4)(OH)8
  Lansfordite      -4.51     -9.55   -5.04  Mg(CO3):5H2O
  Laumontite        3.42     15.09   11.67  CaAl2Si4O12:4H2O
  Leonhardtite     -6.60     -7.49   -0.89  MgSO4:4H2O
  Leonite         -14.76    -18.74   -3.98  K2Mg(SO4)2:4H2O
  Lepidocrocite     2.06      3.92    1.86  FeOOH
  Lizardite        -3.89     29.19   33.08  Mg3Si2O5(OH)4
  Mackinawite    -151.02   -154.21   -3.19  FeS
  Maghemite         5.05      7.84    2.79  Fe2O3
  Magnesite(nat)   -0.64     -9.55   -8.91  MgCO3
  Magnesite(syn)   -1.45     -9.55   -8.10  Mg(CO3)
  Magnetite        -6.13      4.21   10.34  Fe3O4
  Margarite         0.39     37.38   36.99  CaAl4Si2O10(OH)2
  Melanterite     -20.84    -23.12   -2.28  FeSO4:7H2O
  Mercallite      -13.97    -15.37   -1.40  KHSO4
  Merlinoite_K     -3.81      5.66    9.47  K1.04Al1.04Si1.96O6:1.69H2O
  Merlinoite_Na    -4.39      5.90   10.29  Na1.04Al1.04Si1.96O6:2.27H2O
  Mg(cr)         -108.97    -29.19   79.78  Mg
  Mg(NO3)2(s)     -29.87    -14.37   15.50  Mg(NO3)2
  Mg(NO3)2:6H2O(s) -16.95    -14.37    2.58  Mg(NO3)2:6H2O
  Mg(SeO3):6H2O(s) -17.68    -23.50   -5.82  Mg(SeO3):6H2O
  Mg(SeO4):6H2O(s)  -9.22    -10.35   -1.13  Mg(SeO4):6H2O
  Mg(SO4)(s)      -16.59     -7.49    9.10  Mg(SO4)
  Mg(SO4):H2O(s)   -7.37     -7.49   -0.12  Mg(SO4):H2O
  Mg5(CO3)4(OH)2:4H2O(s) -15.88    -26.19  -10.31  Mg5(CO3)4(OH)2:4H2O
  MgMoO4(s)        -9.05     -9.69   -0.64  MgMoO4
  Microcline        1.59      1.64    0.05  KAlSi3O8
  Minnesotaite    -39.50    -24.51   14.99  Fe3Si4O10(OH)2
  Mirabilite       -9.56    -10.79   -1.23  Na2SO4:10H2O
  Mo(cr)         -125.70   -145.28  -19.58  Mo
  Mo3O8(s)        -42.71   -106.27  -63.56  Mo3O8
  Monocarboaluminate -23.41     46.89   70.30  (CaO)3Al2O3:CaCO3:10.68H2O
  Monosulfate-Fe  -24.74     41.31   66.05  Ca4Fe2(SO4)(OH)12:6H2O
  Monosulfoaluminate -24.12     48.95   73.07  Ca4Al2(SO4)(OH)12:6H2O
  Montmorillonite-BCCa   1.35      5.55    4.20  Ca0.17Mg0.34Al1.66Si4O10(OH)2
  Montmorillonite-BCK   1.89      4.70    2.81  K0.34Mg0.34Al1.66Si4O10(OH)2
  Montmorillonite-BCMg   1.65      5.34    3.69  Mg0.17Mg0.34Al1.66Si4O10(OH)2
  Montmorillonite-BCNa   1.39      4.78    3.39  Na0.34Mg0.34Al1.66Si4O10(OH)2
  Montmorillonite-HCCa   1.49      8.38    6.89  Ca0.3Mg0.6Al1.4Si4O10(OH)2
  Montmorillonite-HCK   2.45      6.88    4.43  K0.6Mg0.6Al1.4Si4O10(OH)2
  Montmorillonite-HCMg   2.03      8.01    5.98  Mg0.3Mg0.6Al1.4Si4O10(OH)2
  Montmorillonite-HCNa   1.57      7.02    5.45  Na0.6Mg0.6Al1.4Si4O10(OH)2
  MoO2(s)         -33.01    -62.89  -29.88  MoO2
  MoO3(s)          -9.71    -21.69  -11.98  MoO3
  Mordenite_Ca      0.77     -2.15   -2.92  Ca0.515Al1.03Si4.97O12:3.1H2O
  Mordenite_Oregon  -0.39     -4.57   -4.18  Ca0.289Na0.362Al0.94Si5.06O12:3.468H2O
  MoS2(s)        -294.14   -364.05  -69.91  MoS2
  MoS3(s)        -405.36   -473.43  -68.07  MoS3
  Muscovite         4.10     17.12   13.02  KAl3Si3O10(OH)2
  N2(g)           -21.89   -232.34 -210.45  N2
  Na(cr)          -62.14    -16.25   45.89  Na
  Na(NO3)(s)       -9.92     -8.83    1.09  Na(NO3)
  Na2(CO3)(cr)    -13.97    -12.85    1.12  Na2(CO3)
  Na2CO3:7H2O(s)  -12.39    -12.85   -0.46  Na2CO3:7H2O
  Na2O(cr)        -58.76      8.70   67.46  Na2O
  Nahcolite        -6.46    -17.20  -10.74  Na(HCO3)
  Natrolite        -5.35     13.96   19.31  Na2(Al2Si3)O10:2H2O
  Natron          -12.02    -12.85   -0.83  Na2(CO3):10H2O
  Nesquehonite     -4.45     -9.55   -5.10  Mg(CO3):3H2O
  Nontronite-Ca     4.37      1.51   -2.86  Ca0.17Fe1.67Al0.67Si3.66O10(OH)2
  Nontronite-K      4.69      0.66   -4.03  K0.34Fe1.67Al0.67Si3.66O10(OH)2
  Nontronite-Mg     4.71      1.30   -3.41  Mg0.17Fe1.67Al0.67Si3.66O10(OH)2
  Nontronite-Na     4.27      0.74   -3.53  Na0.34Fe1.67Al0.67Si3.66O10(OH)2
  Nontronite_Nau-2   4.03      5.33    1.30  Ca0.247K0.02(Si3.458Al0.542)(Fe1.688Al0.276Mg0.068)O10(OH)2
  O2(g)            -0.70     -3.60   -2.90  O2
  Okenite          -2.76      6.42    9.18  CaSi2O5:2H2O
  Paragonite        0.56     17.35   16.79  NaAl3Si3O10(OH)2
  Pentahydrite     -6.21     -7.49   -1.28  MgSO4:5H2O
  Periclase        -9.58     12.00   21.58  MgO
  Phillipsite_Ca    1.82      4.14    2.32  Ca0.5AlSi3O8:3H2O
  Phillipsite_K     1.60      1.64    0.04  KAlSi3O8:3H2O
  Phillipsite_Na    0.42      1.87    1.45  NaAlSi3O8:3H2O
  Phlogopite_K     -3.44     37.64   41.08  KMg3Si3AlO10(OH)2
  Phlogopite_Na    -6.31     37.87   44.18  NaMg3AlSi3O10(OH)2
  Picromerite     -14.41    -18.74   -4.33  K2Mg(SO4)2:6H2O
  Pirssonite      -12.25    -21.16   -8.91  Na2Ca(CO3)2:2H2O
  Polyhalite      -17.50    -31.24  -13.74  K2MgCa2(SO4)4:2H2O
  Portlandite      -9.57     13.24   22.81  Ca(OH)2
  Pyrite         -246.77   -263.59  -16.82  FeS2
  Pyrophyllite      2.29      1.85   -0.44  Al2Si4O10(OH)2
  Pyrrhotite     -143.06   -148.38   -5.32  Fe0.87S
  Quartz            0.33     -3.41   -3.74  SiO2
  Ripidolite_Cca-2 -20.75     40.60   61.35  (Mg2.964Fe1.712Fe0.215Al1.116Ca0.011)(Si2.633Al1.367)O10(OH)8
  S(cr)          -107.25   -109.39   -2.14  S
  Sanidine          1.06      1.64    0.58  KAlSi3O8
  Saponite-Ca      -0.93     28.41   29.34  Ca0.17Mg3Al0.34Si3.66O10(OH)2
  Saponite-FeCa   -11.69     12.79   24.48  Ca0.17Mg2FeAl0.34Si3.66O10(OH)2
  Saponite-FeK    -13.46     11.94   25.40  K0.34Mg2FeAl0.34Si3.66O10(OH)2
  Saponite-FeMg   -13.46     12.57   26.03  Mg0.17Mg2FeAl0.34Si3.66O10(OH)2
  Saponite-FeNa   -13.72     12.01   25.73  Na0.34Mg2FeAl0.34Si3.66O10(OH)2
  Saponite-K       -0.61     27.56   28.17  K0.34Mg3Al0.34Si3.66O10(OH)2
  Saponite-Mg      -0.59     28.20   28.79  Mg0.17Mg3Al0.34Si3.66O10(OH)2
  Saponite-Na      -1.03     27.64   28.67  Na0.34Mg3Al0.34Si3.66O10(OH)2
  Saponite_SapCa   -2.79     28.66   31.45  (Na0.394K0.021Ca0.038)(Si3.569Al0.397)(Mg2.949Fe0.034Fe0.021)O10(OH)2
  Saponite_SapCa(4.151H2O)   0.39     28.66   28.27  (Na0.394K0.021Ca0.038)(Si3.569Al0.397)(Mg2.949Fe0.034Fe0.021)O10(OH)2:4.151H2O
  Sb(cr)          -82.74    -94.41  -11.67  Sb
  Sb2O5(s)        -18.92    -26.32   -7.40  Sb2O5
  Schwertmannite(cr)   3.15     11.87    8.72  Fe8O8(OH)6SO4
  Scolecite         1.87     18.50   16.63  CaAl2Si3O10:3H2O
  Se(s)           -56.74    -64.36   -7.62  Se
  SeO3(cr)        -42.71    -22.35   20.36  SeO3
  Si(cr)         -148.99    -85.80   63.19  Si
  Siderite        -14.50    -25.18  -10.68  Fe(CO3)
  Siderophyllite  -27.33     13.27   40.60  KFe2Al3Si2O10(OH)2
  SiO2(am)         -0.70     -3.41   -2.71  SiO2
  Smectite          1.52      6.78    5.26  Na0.409K0.024Ca0.009(Si3.738Al0.262)(Al1.598Mg0.214Fe0.173Fe0.035)O10(OH)2
  Smectite_MX80(3.989H2O)   5.03      6.78    1.75  (Ca0.009Na0.409K0.024)(Si3.738Al0.262)(Al1.598Fe0.173Fe0.035Mg0.214)O10(OH)2:3.989H2O
  Smectite_MX80(5.189H2O)   5.37      6.78    1.41  (Ca0.009Na0.409K0.024)(Si3.738Al0.262)(Al1.598Fe0.173Fe0.035Mg0.214)O10(OH)2:5.189H2O
  SO2(g)          -55.37    -64.31   -8.94  SO2
  Sr(cr)         -129.50    -30.71   98.79  Sr
  Sr(NO3)2(cr)    -16.28    -15.88    0.40  Sr(NO3)2
  Sr(NO3)2:2H2O(s) -15.93    -15.88    0.05  Sr(NO3)2:2H2O
  Sr(NO3)2:4H2O(s) -15.01    -15.88   -0.87  Sr(NO3)2:4H2O
  Sr(OH)2(s)      -17.02     10.49   27.51  Sr(OH)2
  Sr(OH)2:8H2O(s) -13.83     10.49   24.32  Sr(OH)2:8H2O
  Sr(SeO3)(cr)    -18.72    -25.02   -6.30  Sr(SeO3)
  Sr(SeO4)(s)      -7.51    -11.86   -4.35  Sr(SeO4)
  Sr2SiO4(s)      -25.69     17.56   43.25  Sr2SiO4
  SrMoO4(s)        -4.62    -11.21   -6.59  SrMoO4
  SrO(cr)         -31.49     10.49   41.98  SrO
  SrS(s)         -154.77   -140.09   14.68  SrS
  SrSiO3(s)        -6.08      7.08   13.16  SrSiO3
  Stellerite        2.81      9.73    6.92  Ca2Al4Si14O36:14H2O
  Stibnite       -460.94   -516.97  -56.03  Sb2S3
  Stilbite          2.26     25.23   22.97  NaCa2(Al5Si13)O36:16H2O
  Stratlingite    -11.11     38.55   49.66  Ca2Al2SiO3(OH)8:4H2O
  Strontianite     -1.79    -11.06   -9.27  Sr(CO3)
  Sudoite           6.81     44.74   37.93  Mg2Al4Si3O10(OH)8
  Syngenite       -10.05    -17.50   -7.45  K2Ca(SO4)2:6H2O
  Talc             -2.55     22.37   24.92  Mg3Si4O10(OH)2
  Thenardite      -10.43    -10.79   -0.36  Na2SO4
  Thermonatrite   -13.33    -12.85    0.48  Na2(CO3):H2O
  Tobermorite-11A -19.83     45.75   65.58  Ca5Si6O16.5(OH):5H2O
  Tobermorite-14A -17.19     45.75   62.94  Ca5Si6O16.5(OH):10H2O
  Troilite       -150.22   -154.21   -3.99  FeS
  Trona           -18.67    -30.05  -11.38  Na3H(CO3)2:2H2O
  Truscottite     -25.29     51.79   77.08  Ca7Si12O29(OH)4:H2O
  Valentinite     -56.75    -65.23   -8.48  Sb2O3
  Vaterite         -0.41     -8.31   -7.90  CaCO3
  Vermiculite-Ca   -1.90     37.65   39.55  Ca0.43Mg3Si3.14Al0.86O10(OH)2
  Vermiculite-K    -1.94     35.50   37.44  K0.86Mg3.00Si3.14Al0.86O10(OH)2
  Vermiculite-Mg   -0.92     37.12   38.04  Mg0.43Mg3Si3.14Al0.86O10(OH)2
  Vermiculite-Na   -2.69     35.70   38.39  Na0.86Mg3.00Si3.14Al0.86O10(OH)2
  Vermiculite_SO   -7.84     38.04   45.88  (Ca0.445)(Si2.778Al1.222)(Al0.216Fe0.226Fe0.028Mg2.475)O10(OH)2
  Wairakite         0.67     15.09   14.42  CaAl2Si4O12:2H2O
  Xonotlite       -32.35     58.99   91.34  Ca6Si6O17(OH)2
  Zeolite_CaP      -1.34     43.81   45.15  Ca2Al4Si4O16:9H2O

**For a gas, SI = log10(fugacity). Fugacity = pressure * phi / 1 atm.
  For ideal gases, phi = 1.

------------------
End of simulation.
------------------

------------------------------------
Reading input data for simulation 7.
------------------------------------

