   Input file: sit_redox
  Output file: sit_redox.out
Database file: ../database/sit.dat

------------------
Reading data base.
------------------

	SOLUTION_MASTER_SPECIES
	SIT
	SOLUTION_SPECIES
	PHASES
------------------------------------
Reading input data for simulation 1.
------------------------------------

	DATABASE ../database/sit.dat
	SELECTED_OUTPUT 101
	    file                 sit_redox_101.sel
	USER_PUNCH 101
	    headings Mu SC
	    start
	10 PUNCH STR_F$(MU, 20, 12)
	20 PUNCH STR_F$(SC, 20, 10)
	    end
	SIT
	epsilon
	Al(OH)+2                Cl-             0.09 
WARNING: Redefinition of parameter, Al(OH)+2 Cl-

	Al(OH)2+                Cl-             0.09 
WARNING: Redefinition of parameter, Al(OH)2+ Cl-

	Al+3                    Cl-             0.33 
WARNING: Redefinition of parameter, Al+3 Cl-

	Ba+2                    Cl-             0.07 
WARNING: Redefinition of parameter, Ba+2 Cl-

	Cl-                     Ca+2             0.14 
WARNING: Redefinition of parameter, Cl- Ca+2

	TITLE  High-salinity high-sulphate PW, Effingen M. 
	SOLUTION 2 High_SO4_high_sal # 1st extract from OFT-13
	    pH 	7.25  # average of extracts #2-5
	    pe 	4.0	# initial estimate
	    units mg/L
	    temp 25.0
		Na    10343     #increased
		K        75.4
		Mg      958.    Dolomite 0.0
		Ca     2980     Gypsum 0.0
		Sr      154.    Celestite 0.0
		Cl    16543.    charge
		S      3500.    as SO4 # aim at SO4/Cl>0.3
		C(4)     10.0   Calcite 0.0
		Si        2.0   Quartz  0.0
	SAVE SOLUTION 2
	END
-----
TITLE
-----

  High-salinity high-sulphate PW, Effingen M. 

-------------------------------------------
Beginning of initial solution calculations.
-------------------------------------------

Initial solution 2.	High_SO4_high_sal 

-----------------------------Solution composition------------------------------

	Elements           Molality       Moles

	C(4)              1.506e-03   1.506e-03  Equilibrium with Calcite
	Ca                3.017e-02   3.017e-02  Equilibrium with Gypsum
	Cl                4.983e-01   4.983e-01  Charge balance
	K                 1.998e-03   1.998e-03
	Mg                2.306e-02   2.306e-02  Equilibrium with Dolomite
	Na                4.660e-01   4.660e-01
	S                 3.774e-02   3.774e-02
	Si                1.767e-04   1.767e-04  Equilibrium with Quartz
	Sr                3.689e-04   3.689e-04  Equilibrium with Celestite

----------------------------Description of solution----------------------------

                                       pH  =   7.250    
                                       pe  =   4.000    
                        Activity of water  =   0.983
                 Ionic strength (mol/kgw)  =   6.251e-01
                       Mass of water (kg)  =   1.000e+00
                 Total alkalinity (eq/kg)  =   1.429e-03
                       Total CO2 (mol/kg)  =   1.506e-03
                         Temperature (°C)  =  25.00
                  Electrical balance (eq)  =   4.594e-13
 Percent error, 100*(Cat-|An|)/(Cat+|An|)  =   0.00
                               Iterations  =  38
                         Gamma iterations  =  11
                      Osmotic coefficient  =   0.90933
                                  Total H  = 1.110195e+02
                                  Total O  = 5.566477e+01

----------------------------Distribution of species----------------------------

                                               Log       Log       Log    mole V
   Species          Molality    Activity  Molality  Activity     Gamma   cm³/mol

   OH-             2.561e-07   1.748e-07    -6.592    -6.757    -0.166     (0)  
   H+              7.502e-08   5.623e-08    -7.125    -7.250    -0.125      0.00
   H2O             5.551e+01   9.830e-01     1.744    -0.007     0.000     18.07
C(4)          1.506e-03
   HCO3-           1.140e-03   7.455e-04    -2.943    -3.128    -0.184     (0)  
   Na(HCO3)        1.311e-04   1.311e-04    -3.882    -3.882     0.000     (0)  
   CO2             9.548e-05   9.548e-05    -4.020    -4.020     0.000     (0)  
   Ca(HCO3)+       7.664e-05   5.012e-05    -4.116    -4.300    -0.184     (0)  
   Mg(HCO3)+       4.513e-05   2.951e-05    -4.346    -4.530    -0.184     (0)  
   Na(CO3)-        5.520e-06   3.610e-06    -5.258    -5.442    -0.184     (0)  
   CaCO3           5.495e-06   5.495e-06    -5.260    -5.260     0.000     (0)  
   CO3-2           3.695e-06   6.201e-07    -5.432    -6.208    -0.775     (0)  
   Mg(CO3)         2.138e-06   2.138e-06    -5.670    -5.670     0.000     (0)  
   Sr(HCO3)+       8.701e-07   5.690e-07    -6.060    -6.245    -0.184     (0)  
   Sr(CO3)         2.019e-08   2.019e-08    -7.695    -7.695     0.000     (0)  
   CO              2.555e-32   2.555e-32   -31.593   -31.593     0.000     (0)  
Ca            3.017e-02
   Ca+2            2.490e-02   5.340e-03    -1.604    -2.272    -0.669     (0)  
   Ca(SO4)         5.187e-03   5.187e-03    -2.285    -2.285     0.000     (0)  
   Ca(HCO3)+       7.664e-05   5.012e-05    -4.116    -4.300    -0.184     (0)  
   CaCO3           5.495e-06   5.495e-06    -5.260    -5.260     0.000     (0)  
   Ca(H3SiO4)+     3.777e-08   2.470e-08    -7.423    -7.607    -0.184     (0)  
   Ca(OH)+         2.369e-08   1.549e-08    -7.625    -7.810    -0.184     (0)  
   Ca(S2O3)        0.000e+00   0.000e+00   -71.461   -71.461     0.000     (0)  
Cl            4.983e-01
   Cl-             4.941e-01   3.387e-01    -0.306    -0.470    -0.164     (0)  
   MgCl+           4.186e-03   2.737e-03    -2.378    -2.563    -0.184     (0)  
   SrCl+           4.435e-05   2.900e-05    -4.353    -4.538    -0.184     (0)  
   Cl2             0.000e+00   0.000e+00   -40.150   -40.150     0.000     (0)  
   ClO4-           0.000e+00   0.000e+00   -98.122   -98.290    -0.168     (0)  
H(0)          5.261e-26
   H2              2.630e-26   2.630e-26   -25.580   -25.580     0.000     (0)  
K             1.998e-03
   K+              1.998e-03   1.306e-03    -2.700    -2.884    -0.184     (0)  
Mg            2.306e-02
   Mg+2            1.591e-02   3.610e-03    -1.798    -2.442    -0.644     (0)  
   MgCl+           4.186e-03   2.737e-03    -2.378    -2.563    -0.184     (0)  
   Mg(SO4)         2.917e-03   2.917e-03    -2.535    -2.535     0.000     (0)  
   Mg(HCO3)+       4.513e-05   2.951e-05    -4.346    -4.530    -0.184     (0)  
   Mg(CO3)         2.138e-06   2.138e-06    -5.670    -5.670     0.000     (0)  
   Mg(OH)+         2.016e-07   1.319e-07    -6.695    -6.880    -0.184     (0)  
   Mg(H3SiO4)+     4.541e-08   2.969e-08    -7.343    -7.527    -0.184     (0)  
   Mg4(OH)4+4      2.523e-18   2.821e-21   -17.598   -20.550    -2.951     (0)  
   Mg(S2O3)        0.000e+00   0.000e+00   -71.161   -71.161     0.000     (0)  
Na            4.660e-01
   Na+             4.659e-01   3.127e-01    -0.332    -0.505    -0.173     (0)  
   Na(HCO3)        1.311e-04   1.311e-04    -3.882    -3.882     0.000     (0)  
   Na(CO3)-        5.520e-06   3.610e-06    -5.258    -5.442    -0.184     (0)  
   Na(S2O3)-       0.000e+00   0.000e+00   -70.249   -70.433    -0.184     (0)  
O(0)          0.000e+00
   O2              0.000e+00   0.000e+00   -41.005   -41.005     0.000     (0)  
S(-2)         0.000e+00
   HS-             0.000e+00   0.000e+00   -65.668   -65.853    -0.184     (0)  
   H2S             0.000e+00   0.000e+00   -66.113   -66.113     0.000     (0)  
   S-2             0.000e+00   0.000e+00   -74.965   -75.703    -0.738     (0)  
   S2-2            0.000e+00   0.000e+00  -119.008  -119.746    -0.738     (0)  
   S3-2            0.000e+00   0.000e+00  -165.581  -166.319    -0.738     (0)  
   S4-2            0.000e+00   0.000e+00  -213.254  -213.992    -0.738     (0)  
   S5-2            0.000e+00   0.000e+00  -261.147  -261.884    -0.738     (0)  
S(2)          0.000e+00
   S2O3-2          0.000e+00   0.000e+00   -69.800   -70.538    -0.738     (0)  
   Na(S2O3)-       0.000e+00   0.000e+00   -70.249   -70.433    -0.184     (0)  
   Mg(S2O3)        0.000e+00   0.000e+00   -71.161   -71.161     0.000     (0)  
   Ca(S2O3)        0.000e+00   0.000e+00   -71.461   -71.461     0.000     (0)  
   Sr(S2O3)        0.000e+00   0.000e+00   -72.795   -72.795     0.000     (0)  
   H(S2O3)-        0.000e+00   0.000e+00   -75.884   -76.068    -0.184     (0)  
   H2(S2O3)        0.000e+00   0.000e+00   -82.718   -82.718     0.000     (0)  
S(3)          0.000e+00
   S2O4-2          0.000e+00   0.000e+00   -75.178   -75.916    -0.738     (0)  
   HS2O4-          0.000e+00   0.000e+00   -80.481   -80.666    -0.184     (0)  
   H2S2O4          0.000e+00   0.000e+00   -87.616   -87.616     0.000     (0)  
S(4)          2.654e-28
   SO3-2           2.187e-28   3.671e-29   -27.660   -28.435    -0.775     (0)  
   H(SO3)-         4.669e-29   3.053e-29   -28.331   -28.515    -0.184     (0)  
   SO2             1.265e-34   1.265e-34   -33.898   -33.898     0.000     (0)  
   H2(SO3)         1.244e-34   1.244e-34   -33.905   -33.905     0.000     (0)  
   S2O5-2          0.000e+00   0.000e+00   -57.775   -58.513    -0.738     (0)  
   S3O6-2          0.000e+00   0.000e+00   -99.225   -99.963    -0.738     (0)  
   S4O6-2          0.000e+00   0.000e+00  -133.158  -133.896    -0.738     (0)  
   S5O6-2          0.000e+00   0.000e+00  -196.481  -197.219    -0.738     (0)  
S(6)          3.774e-02
   SO4-2           2.959e-02   4.757e-03    -1.529    -2.323    -0.794     (0)  
   Ca(SO4)         5.187e-03   5.187e-03    -2.285    -2.285     0.000     (0)  
   Mg(SO4)         2.917e-03   2.917e-03    -2.535    -2.535     0.000     (0)  
   Sr(SO4)         4.786e-05   4.786e-05    -4.320    -4.320     0.000     (0)  
   H(SO4)-         3.949e-08   2.555e-08    -7.404    -7.593    -0.189     (0)  
   HSO5-           0.000e+00   0.000e+00   -47.106   -47.290    -0.184     (0)  
   S2O8-2          0.000e+00   0.000e+00   -61.287   -62.025    -0.738     (0)  
Si            1.767e-04
   H4(SiO4)        1.758e-04   1.758e-04    -3.755    -3.755     0.000     (0)  
   H3(SiO4)-       7.531e-07   4.520e-07    -6.123    -6.345    -0.222     (0)  
   Mg(H3SiO4)+     4.541e-08   2.969e-08    -7.343    -7.527    -0.184     (0)  
   Ca(H3SiO4)+     3.777e-08   2.470e-08    -7.423    -7.607    -0.184     (0)  
   Si2O2(OH)5-     2.947e-09   1.769e-09    -8.531    -8.752    -0.222     (0)  
   Si2O3(OH)4-2    2.543e-12   3.960e-13   -11.595   -12.402    -0.808     (0)  
   H2(SiO4)-2      2.452e-12   4.028e-13   -11.610   -12.395    -0.784     (0)  
   Si4O6(OH)6-2    4.447e-16   8.132e-17   -15.352   -16.090    -0.738     (0)  
   Si3O6(OH)3-3    9.646e-18   1.613e-19   -17.016   -18.792    -1.777     (0)  
   Si3O5(OH)5-3    7.532e-18   1.260e-19   -17.123   -18.900    -1.777     (0)  
   Si4O8(OH)4-4    7.635e-23   6.460e-26   -22.117   -25.190    -3.073     (0)  
   Si4O7(OH)6-4    7.149e-23   7.994e-26   -22.146   -25.097    -2.951     (0)  
   Si6O15-6        7.560e-35   0.000e+00   -34.121   -40.762    -6.641     (0)  
Sr            3.689e-04
   Sr+2            2.758e-04   5.043e-05    -3.559    -4.297    -0.738     (0)  
   Sr(SO4)         4.786e-05   4.786e-05    -4.320    -4.320     0.000     (0)  
   SrCl+           4.435e-05   2.900e-05    -4.353    -4.538    -0.184     (0)  
   Sr(HCO3)+       8.701e-07   5.690e-07    -6.060    -6.245    -0.184     (0)  
   Sr(CO3)         2.019e-08   2.019e-08    -7.695    -7.695     0.000     (0)  
   Sr(OH)+         6.913e-11   4.521e-11   -10.160   -10.345    -0.184     (0)  
   Sr(S2O3)        0.000e+00   0.000e+00   -72.795   -72.795     0.000     (0)  

------------------------------Saturation indices-------------------------------

  Phase               SI** log IAP   log K(298 K,   1 atm)

  Afwillite       -20.26     29.16   49.42  Ca3Si2O4(OH)6
  Anhydrite        -0.16     -4.60   -4.44  Ca(SO4)
  Antarcticite     -7.20     -3.26    3.94  CaCl2:6H2O
  Antigorite      -48.88    451.01  499.89  Mg48Si34O85(OH)62
  Aragonite        -0.17     -8.48   -8.31  CaCO3
  Arcanite         -6.24     -8.09   -1.85  K2SO4
  Artinite         -6.44      3.37    9.81  Mg2(CO3)(OH)2:3H2O
  Bassanite        -0.68     -4.60   -3.92  CaSO4:0.5H2O
  Bischofite       -7.89     -3.43    4.46  MgCl2:6H2O
  Bloedite         -5.78     -8.13   -2.35  Na2Mg(SO4)2:4H2O
  Brucite          -5.06     12.04   17.10  Mg(OH)2
  Burkeite        -13.11    -13.88   -0.77  Na6(CO3)(SO4)2
  C(cr)           -33.54    -65.69  -32.15  C
  C2SH(alpha)     -14.85     20.69   35.54  Ca2(HSiO4)(OH)
  Ca(cr)         -107.12    -10.27   96.85  Ca
  Ca(SO3)(s)      -24.21    -30.71   -6.50  Ca(SO3)
  Ca2Cl2(OH)2:H2O(s) -17.54      8.99   26.53  Ca2Cl2(OH)2:H2O
  Ca4Cl2(OH)6:13H2O(s) -35.40     33.33   68.73  Ca4Cl2(OH)6:13H2O
  CaCl2:2H2O(cr)  -11.18     -3.23    7.95  CaCl2:2H2O
  CaCl2:4H2O(cr)   -8.59     -3.24    5.35  CaCl2:4H2O
  CaCl2:H2O(s)    -11.07     -3.22    7.85  CaCl2:H2O
  CaCO3:H2O(s)     -0.89     -8.49   -7.60  CaCO3:H2O
  Calcite           0.00     -8.48   -8.48  CaCO3
  CaMg3(CO3)4(s)   -3.62    -34.43  -30.81  CaMg3(CO3)4
  CaO(cr)         -20.48     12.22   32.70  CaO
  Carnallite      -11.11     -6.78    4.33  KMgCl3:6H2O
  Celestite         0.00     -6.62   -6.62  Sr(SO4)
  CH4(g)          -69.64   -110.69  -41.05  CH4
  Cl2(g)          -38.92      7.06   45.98  Cl2
  CO(g)           -28.55    -43.19  -14.64  CO
  CO2(g)           -2.55    -20.70  -18.15  CO2
  Cristobalite     -0.58     -3.74   -3.16  SiO2
  CSH0.8           -5.03      6.02   11.05  Ca0.8SiO2.8:1.54H2O
  CSH1.2           -8.39     10.91   19.30  Ca1.2SiO3.2:2.06H2O
  CSH1.6          -12.21     15.79   28.00  Ca1.6SiO3.6:2.58H2O
  Dolomite          0.00    -17.13  -17.13  CaMg(CO3)2
  Epsonite         -2.94     -4.82   -1.88  Mg(SO4):7H2O
  Foshagite       -28.31     37.65   65.96  Ca4Si3O9(OH)2:0.5H2O
  Gaylussite       -6.30    -15.73   -9.43  CaNa2(CO3)2:5H2O
  Glaserite       -19.99    -27.60   -7.61  Na2K6(SO4)4
  Glauberite       -9.90     -7.93    1.97  Na2Ca(SO4)2
  Gypsum            0.00     -4.61   -4.61  CaSO4:2H2O
  Gyrolite         -9.14     13.20   22.34  Ca2Si3O7.5(OH):2H2O
  H2(g)           -22.50    -22.50    0.00  H2
  H2O(g)           -1.50    -43.00  -41.50  H2O
  H2S(g)          -65.10    -73.10   -8.00  H2S
  Halite           -2.57     -0.98    1.59  NaCl
  HCl(g)          -14.01     -7.72    6.29  HCl
  Hexahydrite      -3.17     -4.81   -1.64  Mg(SO4):6H2O
  Hillebrandite   -16.26     20.69   36.95  Ca2SiO3(OH)2:0.17H2O
  Hydrophilite    -14.98     -3.21   11.77  CaCl2
  Jaffeite        -48.24     65.82  114.06  Ca6(Si2O7)(OH)6
  Jennite         -59.87     87.46  147.33  Ca9Si6O16(OH)10:6H2O
  K(cr)           -56.37     -6.88   49.49  K
  K(OH)(s)        -20.24      4.36   24.60  K(OH)
  K-carbonate     -15.02    -11.99    3.03  K2CO3:1.5H2O
  K-trona         -16.85    -25.95   -9.10  K2NaH(CO3)2:2H2O
  K2CO3(cr)       -17.39    -11.98    5.41  K2CO3
  K2O(s)          -75.39      8.72   84.11  K2O
  Kainite          -7.95     -8.14   -0.19  KMgCl(SO4):3H2O
  Kalicinite       -6.28    -16.34  -10.06  KHCO3
  Lansfordite      -3.65     -8.69   -5.04  Mg(CO3):5H2O
  Leonhardtite     -3.90     -4.79   -0.89  MgSO4:4H2O
  Leonite          -8.91    -12.89   -3.98  K2Mg(SO4)2:4H2O
  Lizardite        -4.42     28.66   33.08  Mg3Si2O5(OH)4
  Magnesite(nat)    0.26     -8.65   -8.91  MgCO3
  Magnesite(syn)   -0.55     -8.65   -8.10  Mg(CO3)
  Mercallite      -11.06    -12.46   -1.40  KHSO4
  Mg(cr)          -90.22    -10.44   79.78  Mg
  Mg(SO4)(s)      -13.87     -4.77    9.10  Mg(SO4)
  Mg(SO4):H2O(s)   -4.65     -4.77   -0.12  Mg(SO4):H2O
  Mg-oxychlorur    -9.69     16.34   26.03  Mg2Cl(OH)3:4H2O
  Mg5(CO3)4(OH)2:4H2O(s) -12.28    -22.59  -10.31  Mg5(CO3)4(OH)2:4H2O
  MgCl2(s)        -25.41     -3.38   22.03  MgCl2
  MgCl2:2H2O(s)   -16.30     -3.40   12.90  MgCl2:2H2O
  MgCl2:4H2O(s)   -10.85     -3.41    7.44  MgCl2:4H2O
  MgCl2:H2O(s)    -19.61     -3.39   16.22  MgCl2:H2O
  Mirabilite       -2.18     -3.41   -1.23  Na2SO4:10H2O
  Na(cr)          -50.39     -4.50   45.89  Na
  Na2(CO3)(cr)     -8.34     -7.22    1.12  Na2(CO3)
  Na2CO3:7H2O(s)   -6.81     -7.27   -0.46  Na2CO3:7H2O
  Na2O(cr)        -53.98     13.48   67.46  Na2O
  Nahcolite        -3.22    -13.96  -10.74  Na(HCO3)
  Natron           -6.46     -7.29   -0.83  Na2(CO3):10H2O
  Nesquehonite     -3.57     -8.67   -5.10  Mg(CO3):3H2O
  O2(g)           -38.10    -41.00   -2.90  O2
  Okenite          -4.45      4.73    9.18  CaSi2O5:2H2O
  Pentahydrite     -3.52     -4.80   -1.28  MgSO4:5H2O
  Periclase        -9.53     12.05   21.58  MgO
  Picromerite      -8.57    -12.90   -4.33  K2Mg(SO4)2:6H2O
  Pirssonite       -6.80    -15.71   -8.91  Na2Ca(CO3)2:2H2O
  Polyhalite       -8.32    -22.06  -13.74  K2MgCa2(SO4)4:2H2O
  Portlandite     -10.60     12.21   22.81  Ca(OH)2
  Quartz           -0.00     -3.74   -3.74  SiO2
  S(cr)           -48.46    -50.60   -2.14  S
  Si(cr)         -111.92    -48.73   63.19  Si
  SiO2(am)         -1.03     -3.74   -2.71  SiO2
  SO2(g)          -33.99    -42.93   -8.94  SO2
  Sr(cr)         -111.09    -12.30   98.79  Sr
  Sr(OH)2(s)      -17.32     10.19   27.51  Sr(OH)2
  Sr(OH)2:8H2O(s) -14.19     10.13   24.32  Sr(OH)2:8H2O
  Sr2SiO4(s)      -26.60     16.65   43.25  Sr2SiO4
  SrCl2(s)        -13.36     -5.24    8.12  SrCl2
  SrCl2:2H2O(s)    -8.72     -5.25    3.47  SrCl2:2H2O
  SrCl2:6H2O(s)    -6.89     -5.28    1.61  SrCl2:6H2O
  SrCl2:H2O(s)    -10.16     -5.25    4.91  SrCl2:H2O
  SrO(cr)         -31.78     10.20   41.98  SrO
  SrS(s)          -77.58    -62.90   14.68  SrS
  SrSiO3(s)        -6.70      6.46   13.16  SrSiO3
  Strontianite     -1.23    -10.50   -9.27  Sr(CO3)
  Sylvite          -4.22     -3.35    0.87  KCl
  Syngenite        -5.28    -12.73   -7.45  K2Ca(SO4)2:6H2O
  Tachyhydrite    -27.45    -10.07   17.38  Mg2CaCl6:12H2O
  Talc             -3.74     21.18   24.92  Mg3Si4O10(OH)2
  Thenardite       -2.97     -3.33   -0.36  Na2SO4
  Thermonatrite    -7.70     -7.22    0.48  Na2(CO3):H2O
  Tobermorite-11A -26.96     38.62   65.58  Ca5Si6O16.5(OH):5H2O
  Tobermorite-14A -24.36     38.58   62.94  Ca5Si6O16.5(OH):10H2O
  Trona            -9.81    -21.19  -11.38  Na3H(CO3)2:2H2O
  Truscottite     -36.44     40.64   77.08  Ca7Si12O29(OH)4:H2O
  Vaterite         -0.58     -8.48   -7.90  CaCO3
  Xonotlite       -40.47     50.87   91.34  Ca6Si6O17(OH)2

**For a gas, SI = log10(fugacity). Fugacity = pressure * phi / 1 atm.
  For ideal gases, phi = 1.

------------------
End of simulation.
------------------

------------------------------------
Reading input data for simulation 2.
------------------------------------

	USE SOLUTION 2
	EQUILIBRIUM_PHASES
		Dolomite       0.0 1.0
		Calcite        0.0 1.0
		Celestite      0.0 1.0
		Quartz         0.0 1.0
		Gypsum         0.0 0.0
		Siderite       0.0 1.0
		Pyrite         0.0 1.0
	REACTION
		H2O	-1.0
		27 moles in 9 steps
	END
-----------------------------------------
Beginning of batch-reaction calculations.
-----------------------------------------

Reaction step 1.

Using solution 2.	High_SO4_high_sal 
Using pure phase assemblage 1.	
Using reaction 1.	

Reaction 1.	

	  3.000e+00 moles of the following reaction have been added:

	                 Relative
	Reactant            moles

	H2O                 -1.00000

	                 Relative
	Element             moles
	H                   -2.00000
	O                   -1.00000

-------------------------------Phase assemblage--------------------------------

                                                      Moles in assemblage
Phase               SI  log IAP  log K(T, P)   Initial       Final       Delta

Calcite           0.00    -8.48     -8.48    1.000e+00   9.989e-01  -1.062e-03
Celestite        -0.00    -6.62     -6.62    1.000e+00   1.000e+00   9.767e-06
Dolomite          0.00   -17.13    -17.13    1.000e+00   1.001e+00   7.001e-04
Gypsum            0.00    -4.61     -4.61    0.000e+00   1.497e-03   1.497e-03
Pyrite            0.00   -16.82    -16.82    1.000e+00   1.000e+00   8.136e-11
Quartz           -0.00    -3.74     -3.74    1.000e+00   1.000e+00   9.910e-06
Siderite          0.00   -10.68    -10.68    1.000e+00   9.997e-01  -3.381e-04

-----------------------------Solution composition------------------------------

	Elements           Molality       Moles

	C                 1.592e-03   1.506e-03
	Ca                3.070e-02   2.904e-02
	Cl                5.268e-01   4.983e-01
	Fe                3.574e-04   3.381e-04
	K                 2.112e-03   1.998e-03
	Mg                2.363e-02   2.236e-02
	Na                4.927e-01   4.660e-01
	S                 3.830e-02   3.623e-02
	Si                1.763e-04   1.668e-04
	Sr                3.796e-04   3.591e-04

----------------------------Description of solution----------------------------

                                       pH  =   7.228      Charge balance
                                       pe  =  -2.893      Adjusted to redox equilibrium
                        Activity of water  =   0.982
                 Ionic strength (mol/kgw)  =   6.556e-01
                       Mass of water (kg)  =   9.459e-01
                 Total alkalinity (eq/kg)  =   1.510e-03
                       Total CO2 (mol/kg)  =   1.592e-03
                         Temperature (°C)  =  25.00
                  Electrical balance (eq)  =   5.049e-12
 Percent error, 100*(Cat-|An|)/(Cat+|An|)  =   0.00
                               Iterations  =  22
                         Gamma iterations  =   8
                      Osmotic coefficient  =   0.91063
                                  Total H  = 1.050135e+02
                                  Total O  = 5.265573e+01

----------------------------Distribution of species----------------------------

                                               Log       Log       Log    mole V
   Species          Molality    Activity  Molality  Activity     Gamma   cm³/mol

   OH-             2.436e-07   1.659e-07    -6.613    -6.780    -0.167     (0)  
   H+              7.872e-08   5.919e-08    -7.104    -7.228    -0.124      0.00
   H2O             5.551e+01   9.821e-01     1.744    -0.008     0.000     18.07
C(-4)         4.053e-18
   CH4             4.053e-18   4.053e-18   -17.392   -17.392     0.000     (0)  
   CH3-            0.000e+00   0.000e+00   -55.978   -56.164    -0.186     (0)  
C(4)          1.592e-03
   HCO3-           1.193e-03   7.763e-04    -2.924    -3.110    -0.186     (0)  
   Na(HCO3)        1.439e-04   1.439e-04    -3.842    -3.842     0.000     (0)  
   CO2             1.048e-04   1.048e-04    -3.980    -3.980     0.000     (0)  
   Ca(HCO3)+       8.105e-05   5.276e-05    -4.091    -4.278    -0.186     (0)  
   Mg(HCO3)+       4.773e-05   3.107e-05    -4.321    -4.508    -0.186     (0)  
   Na(CO3)-        5.784e-06   3.765e-06    -5.238    -5.424    -0.186     (0)  
   CaCO3           5.495e-06   5.495e-06    -5.260    -5.260     0.000     (0)  
   FeCO3           3.890e-06   3.890e-06    -5.410    -5.410     0.000     (0)  
   CO3-2           3.742e-06   6.134e-07    -5.427    -6.212    -0.785     (0)  
   Mg(CO3)         2.138e-06   2.138e-06    -5.670    -5.670     0.000     (0)  
   Sr(HCO3)+       9.184e-07   5.978e-07    -6.037    -6.223    -0.186     (0)  
   Sr(CO3)         2.015e-08   2.015e-08    -7.696    -7.696     0.000     (0)  
   Fe(OH)CO3       1.981e-09   1.981e-09    -8.703    -8.703     0.000     (0)  
   Fe(CO3)2-2      7.828e-10   1.405e-10    -9.106    -9.852    -0.746     (0)  
   Fe(CO3)3-3      4.274e-14   8.964e-16   -13.369   -15.048    -1.678     (0)  
   CO              1.899e-18   1.899e-18   -17.721   -17.721     0.000     (0)  
Ca            3.070e-02
   Ca+2            2.542e-02   5.398e-03    -1.595    -2.268    -0.673     (0)  
   Ca(SO4)         5.197e-03   5.197e-03    -2.284    -2.284     0.000     (0)  
   Ca(HCO3)+       8.105e-05   5.276e-05    -4.091    -4.278    -0.186     (0)  
   CaCO3           5.495e-06   5.495e-06    -5.260    -5.260     0.000     (0)  
   Ca(H3SiO4)+     3.637e-08   2.367e-08    -7.439    -7.626    -0.186     (0)  
   Ca(OH)+         2.284e-08   1.486e-08    -7.641    -7.828    -0.186     (0)  
   Ca(S2O3)        8.035e-17   8.035e-17   -16.095   -16.095     0.000     (0)  
Cl            5.268e-01
   Cl-             5.221e-01   3.571e-01    -0.282    -0.447    -0.165     (0)  
   MgCl+           4.482e-03   2.917e-03    -2.349    -2.535    -0.186     (0)  
   FeCl+           1.542e-04   1.216e-04    -3.812    -3.915    -0.103     (0)  
   SrCl+           4.740e-05   3.085e-05    -4.324    -4.511    -0.186     (0)  
   FeCl2+          1.263e-19   8.218e-20   -18.899   -19.085    -0.186     (0)  
   FeCl+2          1.185e-19   4.592e-20   -18.926   -19.338    -0.412     (0)  
   FeCl3           1.851e-21   1.851e-21   -20.732   -20.732     0.000     (0)  
   FeCl4-          1.016e-23   6.611e-24   -22.993   -23.180    -0.186     (0)  
   Cl2             0.000e+00   0.000e+00   -53.890   -53.890     0.000     (0)  
   ClO4-           0.000e+00   0.000e+00  -153.421  -153.591    -0.169     (0)  
Fe(2)         3.574e-04
   Fe+2            1.547e-04   3.406e-05    -3.811    -4.468    -0.657     (0)  
   FeCl+           1.542e-04   1.216e-04    -3.812    -3.915    -0.103     (0)  
   Fe(SO4)         4.423e-05   4.423e-05    -4.354    -4.354     0.000     (0)  
   FeCO3           3.890e-06   3.890e-06    -5.410    -5.410     0.000     (0)  
   Fe(OH)+         4.882e-07   3.178e-07    -6.311    -6.498    -0.186     (0)  
   Fe(CO3)2-2      7.828e-10   1.405e-10    -9.106    -9.852    -0.746     (0)  
   Fe(HS)+         3.531e-11   2.298e-11   -10.452   -10.639    -0.186     (0)  
   Fe(OH)2         1.355e-11   1.355e-11   -10.868   -10.868     0.000     (0)  
   Fe(OH)3-        3.454e-17   2.248e-17   -16.462   -16.648    -0.186     (0)  
   Fe(HS)2         9.130e-20   9.130e-20   -19.040   -19.040     0.000     (0)  
   Fe(OH)4-2       6.880e-22   1.235e-22   -21.162   -21.908    -0.746     (0)  
Fe(3)         2.012e-09
   Fe(OH)CO3       1.981e-09   1.981e-09    -8.703    -8.703     0.000     (0)  
   Fe(OH)2+        2.603e-11   1.694e-11   -10.585   -10.771    -0.186     (0)  
   Fe(OH)3         4.885e-12   4.885e-12   -11.311   -11.311     0.000     (0)  
   Fe(OH)4-        1.136e-13   7.392e-14   -12.945   -13.131    -0.186     (0)  
   Fe(CO3)3-3      4.274e-14   8.964e-16   -13.369   -15.048    -1.678     (0)  
   Fe(OH)+2        2.032e-15   4.562e-16   -14.692   -15.341    -0.649     (0)  
   Fe(H3SiO4)+2    1.470e-16   2.638e-17   -15.833   -16.579    -0.746     (0)  
   Fe(SO4)+        5.003e-19   3.257e-19   -18.301   -18.487    -0.186     (0)  
   Fe(SO4)2-       2.201e-19   1.433e-19   -18.657   -18.844    -0.186     (0)  
   FeCl2+          1.263e-19   8.218e-20   -18.899   -19.085    -0.186     (0)  
   FeCl+2          1.185e-19   4.592e-20   -18.926   -19.338    -0.412     (0)  
   Fe+3            7.427e-20   3.884e-21   -19.129   -20.411    -1.282     (0)  
   FeCl3           1.851e-21   1.851e-21   -20.732   -20.732     0.000     (0)  
   FeCl4-          1.016e-23   6.611e-24   -22.993   -23.180    -0.186     (0)  
   Fe2(OH)2+4      6.053e-27   6.285e-30   -26.218   -29.202    -2.984     (0)  
   FeS2O3+         3.151e-32   2.051e-32   -31.502   -31.688    -0.186     (0)  
   Fe3(OH)4+5      1.022e-34   2.225e-39   -33.991   -38.653    -4.662     (0)  
H(0)          3.561e-12
   H2              1.780e-12   1.780e-12   -11.750   -11.750     0.000     (0)  
K             2.112e-03
   K+              2.112e-03   1.375e-03    -2.675    -2.862    -0.186     (0)  
Mg            2.363e-02
   Mg+2            1.618e-02   3.650e-03    -1.791    -2.438    -0.647     (0)  
   MgCl+           4.482e-03   2.917e-03    -2.349    -2.535    -0.186     (0)  
   Mg(SO4)         2.922e-03   2.922e-03    -2.534    -2.534     0.000     (0)  
   Mg(HCO3)+       4.773e-05   3.107e-05    -4.321    -4.508    -0.186     (0)  
   Mg(CO3)         2.138e-06   2.138e-06    -5.670    -5.670     0.000     (0)  
   Mg(OH)+         1.944e-07   1.265e-07    -6.711    -6.898    -0.186     (0)  
   Mg(H3SiO4)+     4.373e-08   2.846e-08    -7.359    -7.546    -0.186     (0)  
   Mg(S2O3)        1.603e-16   1.603e-16   -15.795   -15.795     0.000     (0)  
   Mg4(OH)4+4      2.302e-18   2.391e-21   -17.638   -20.622    -2.984     (0)  
Na            4.927e-01
   Na+             4.925e-01   3.296e-01    -0.308    -0.482    -0.174     (0)  
   Na(HCO3)        1.439e-04   1.439e-04    -3.842    -3.842     0.000     (0)  
   Na(CO3)-        5.784e-06   3.765e-06    -5.238    -5.424    -0.186     (0)  
   Na(S2O3)-       1.371e-15   8.927e-16   -14.863   -15.049    -0.186     (0)  
O(0)          0.000e+00
   O2              0.000e+00   0.000e+00   -68.667   -68.667     0.000     (0)  
S(-2)         1.005e-10
   HS-             4.738e-11   3.084e-11   -10.324   -10.511    -0.186     (0)  
   Fe(HS)+         3.531e-11   2.298e-11   -10.452   -10.639    -0.186     (0)  
   H2S             1.784e-11   1.784e-11   -10.749   -10.749     0.000     (0)  
   Fe(HS)2         9.130e-20   9.130e-20   -19.040   -19.040     0.000     (0)  
   S-2             2.305e-20   4.138e-21   -19.637   -20.383    -0.746     (0)  
   S2-2            7.139e-23   1.282e-23   -22.146   -22.892    -0.746     (0)  
   S3-2            6.525e-28   1.171e-28   -27.185   -27.931    -0.746     (0)  
   S4-2            4.737e-34   8.502e-35   -33.325   -34.070    -0.746     (0)  
   S5-2            2.072e-40   0.000e+00   -39.684   -40.430    -0.746     (0)  
S(2)          1.064e-14
   S2O3-2          3.704e-15   6.648e-16   -14.431   -15.177    -0.746     (0)  
   Na(S2O3)-       1.371e-15   8.927e-16   -14.863   -15.049    -0.186     (0)  
   Mg(S2O3)        1.603e-16   1.603e-16   -15.795   -15.795     0.000     (0)  
   Ca(S2O3)        8.035e-17   8.035e-17   -16.095   -16.095     0.000     (0)  
   Sr(S2O3)        3.709e-18   3.709e-18   -17.431   -17.431     0.000     (0)  
   H(S2O3)-        3.173e-21   2.065e-21   -20.499   -20.685    -0.186     (0)  
   H2(S2O3)        4.867e-28   4.867e-28   -27.313   -27.313     0.000     (0)  
   FeS2O3+         3.151e-32   2.051e-32   -31.502   -31.688    -0.186     (0)  
S(3)          4.585e-34
   S2O4-2          2.292e-34   4.115e-35   -33.640   -34.386    -0.746     (0)  
   HS2O4-          1.183e-39   7.703e-40   -38.927   -39.113    -0.186     (0)  
   H2S2O4          0.000e+00   0.000e+00   -46.041   -46.041     0.000     (0)  
S(4)          1.835e-14
   SO3-2           1.504e-14   2.465e-15   -13.823   -14.608    -0.785     (0)  
   H(SO3)-         3.316e-15   2.158e-15   -14.479   -14.666    -0.186     (0)  
   SO2             9.424e-21   9.424e-21   -20.026   -20.026     0.000     (0)  
   H2(SO3)         9.255e-21   9.255e-21   -20.034   -20.034     0.000     (0)  
   S2O5-2          8.550e-31   1.535e-31   -30.068   -30.814    -0.746     (0)  
   S4O6-2          6.101e-37   1.095e-37   -36.215   -36.960    -0.746     (0)  
   S3O6-2          0.000e+00   0.000e+00   -43.815   -44.561    -0.746     (0)  
   S5O6-2          0.000e+00   0.000e+00   -58.004   -58.750    -0.746     (0)  
S(6)          3.830e-02
   SO4-2           3.009e-02   4.715e-03    -1.522    -2.327    -0.805     (0)  
   Ca(SO4)         5.197e-03   5.197e-03    -2.284    -2.284     0.000     (0)  
   Mg(SO4)         2.922e-03   2.922e-03    -2.534    -2.534     0.000     (0)  
   Sr(SO4)         4.786e-05   4.786e-05    -4.320    -4.320     0.000     (0)  
   Fe(SO4)         4.423e-05   4.423e-05    -4.354    -4.354     0.000     (0)  
   H(SO4)-         4.141e-08   2.665e-08    -7.383    -7.574    -0.191     (0)  
   Fe(SO4)+        5.003e-19   3.257e-19   -18.301   -18.487    -0.186     (0)  
   Fe(SO4)2-       2.201e-19   1.433e-19   -18.657   -18.844    -0.186     (0)  
   HSO5-           0.000e+00   0.000e+00   -60.916   -61.103    -0.186     (0)  
   S2O8-2          0.000e+00   0.000e+00   -75.073   -75.819    -0.746     (0)  
Si            1.763e-04
   H4(SiO4)        1.755e-04   1.755e-04    -3.756    -3.756     0.000     (0)  
   H3(SiO4)-       7.209e-07   4.285e-07    -6.142    -6.368    -0.226     (0)  
   Mg(H3SiO4)+     4.373e-08   2.846e-08    -7.359    -7.546    -0.186     (0)  
   Ca(H3SiO4)+     3.637e-08   2.367e-08    -7.439    -7.626    -0.186     (0)  
   Si2O2(OH)5-     2.818e-09   1.675e-09    -8.550    -8.776    -0.226     (0)  
   Si2O3(OH)4-2    2.353e-12   3.563e-13   -11.628   -12.448    -0.820     (0)  
   H2(SiO4)-2      2.264e-12   3.628e-13   -11.645   -12.440    -0.795     (0)  
   Si4O6(OH)6-2    4.073e-16   7.311e-17   -15.390   -16.136    -0.746     (0)  
   Fe(H3SiO4)+2    1.470e-16   2.638e-17   -15.833   -16.579    -0.746     (0)  
   Si3O6(OH)3-3    8.730e-18   1.379e-19   -17.059   -18.860    -1.801     (0)  
   Si3O5(OH)5-3    6.810e-18   1.076e-19   -17.167   -18.968    -1.801     (0)  
   Si4O8(OH)4-4    6.779e-23   5.241e-26   -22.169   -25.281    -3.112     (0)  
   Si4O7(OH)6-4    6.241e-23   6.480e-26   -22.205   -25.188    -2.984     (0)  
   Si6O15-6        6.547e-35   0.000e+00   -34.184   -40.897    -6.713     (0)  
Sr            3.796e-04
   Sr+2            2.834e-04   5.088e-05    -3.548    -4.293    -0.746     (0)  
   Sr(SO4)         4.786e-05   4.786e-05    -4.320    -4.320     0.000     (0)  
   SrCl+           4.740e-05   3.085e-05    -4.324    -4.511    -0.186     (0)  
   Sr(HCO3)+       9.184e-07   5.978e-07    -6.037    -6.223    -0.186     (0)  
   Sr(CO3)         2.015e-08   2.015e-08    -7.696    -7.696     0.000     (0)  
   Sr(OH)+         6.651e-11   4.329e-11   -10.177   -10.364    -0.186     (0)  
   Sr(S2O3)        3.709e-18   3.709e-18   -17.431   -17.431     0.000     (0)  

------------------------------Saturation indices-------------------------------

  Phase               SI** log IAP   log K(298 K,   1 atm)

  Acmite           -0.37      0.52    0.89  NaFeSi2O6
  Afwillite       -20.38     29.04   49.42  Ca3Si2O4(OH)6
  Anhydrite        -0.15     -4.59   -4.44  Ca(SO4)
  Antarcticite     -7.15     -3.21    3.94  CaCl2:6H2O
  Antigorite      -50.82    449.07  499.89  Mg48Si34O85(OH)62
  Aragonite        -0.17     -8.48   -8.31  CaCO3
  Arcanite         -6.20     -8.05   -1.85  K2SO4
  Artinite         -6.48      3.33    9.81  Mg2(CO3)(OH)2:3H2O
  Bassanite        -0.68     -4.60   -3.92  CaSO4:0.5H2O
  Bischofite       -7.84     -3.38    4.46  MgCl2:6H2O
  Bloedite         -5.74     -8.09   -2.35  Na2Mg(SO4)2:4H2O
  Brucite          -5.10     12.00   17.10  Mg(OH)2
  Burkeite        -12.99    -13.76   -0.77  Na6(CO3)(SO4)2
  C(cr)            -5.83    -37.98  -32.15  C
  C2SH(alpha)     -14.93     20.61   35.54  Ca2(HSiO4)(OH)
  C3FH6           -33.32     39.01   72.33  Ca3Fe2(OH)12
  C4FH13          -43.94     51.14   95.08  Ca4Fe2(OH)14:6H2O
  Ca(cr)          -93.33      3.52   96.85  Ca
  Ca(SO3)(s)      -10.38    -16.88   -6.50  Ca(SO3)
  Ca2Cl2(OH)2:H2O(s) -17.53      9.00   26.53  Ca2Cl2(OH)2:H2O
  Ca2Fe2O5(s)     -29.86     26.88   56.74  Ca2Fe2O5
  Ca4Cl2(OH)6:13H2O(s) -35.48     33.25   68.73  Ca4Cl2(OH)6:13H2O
  CaCl2:2H2O(cr)  -11.13     -3.18    7.95  CaCl2:2H2O
  CaCl2:4H2O(cr)   -8.54     -3.19    5.35  CaCl2:4H2O
  CaCl2:H2O(s)    -11.02     -3.17    7.85  CaCl2:H2O
  CaCO3:H2O(s)     -0.89     -8.49   -7.60  CaCO3:H2O
  CaFe2O4(s)       -6.54     14.70   21.24  CaFe2O4
  Calcite           0.00     -8.48   -8.48  CaCO3
  CaMg3(CO3)4(s)   -3.62    -34.43  -30.81  CaMg3(CO3)4
  CaO(cr)         -20.52     12.18   32.70  CaO
  Carnallite      -11.02     -6.69    4.33  KMgCl3:6H2O
  Celestite        -0.00     -6.62   -6.62  Sr(SO4)
  CH4(g)          -14.27    -55.32  -41.05  CH4
  Chukanovite      -3.68     -0.71    2.97  Fe2(OH)2CO3
  Cl2(g)          -52.66     -6.68   45.98  Cl2
  CO(g)           -14.68    -29.32  -14.64  CO
  CO2(g)           -2.51    -20.66  -18.15  CO2
  Cristobalite     -0.58     -3.74   -3.16  SiO2
  Cronstedtite-Th   2.62     18.73   16.11  Fe4SiO5(OH)4
  CSH0.8           -5.06      5.99   11.05  Ca0.8SiO2.8:1.54H2O
  CSH1.2           -8.44     10.86   19.30  Ca1.2SiO3.2:2.06H2O
  CSH1.6          -12.27     15.73   28.00  Ca1.6SiO3.6:2.58H2O
  Dolomite          0.00    -17.13  -17.13  CaMg(CO3)2
  Epsonite         -2.94     -4.82   -1.88  Mg(SO4):7H2O
  Ettringite-Fe   -29.52     25.03   54.55  Ca6Fe2(SO4)3(OH)12:26H2O
  Fayalite         -3.33     16.22   19.55  Fe2(SiO4)
  Fe(alpha,cr)    -14.57      1.32   15.89  Fe
  Fe(OH)2(cr)      -2.81      9.97   12.78  Fe(OH)2
  Fe0.932O(s)      -3.62      9.89   13.51  Fe0.932O
  Fe3O4(s)         -0.10     12.50   12.60  Fe3O4
  FeO(s)           -3.41      9.98   13.39  FeO
  Ferrihydrite(am)  -2.67      1.25    3.92  Fe(OH)3
  Ferrihydrite(cr)   0.03      1.25    1.22  Fe(OH)3
  Ferrihydrite(s)  -1.53      1.25    2.78  Fe(OH)3
  Ferrosilite     -26.47      6.24   32.71  FeSiO3
  FeS(am)          -4.80     -7.75   -2.95  FeS
  Foshagite       -28.47     37.49   65.96  Ca4Si3O9(OH)2:0.5H2O
  Gaylussite       -6.27    -15.70   -9.43  CaNa2(CO3)2:5H2O
  Glaserite       -19.83    -27.44   -7.61  Na2K6(SO4)4
  Glauberite       -9.85     -7.88    1.97  Na2Ca(SO4)2
  Goethite          1.09      1.26    0.17  FeOOH
  GR-Cl            -5.25     36.55   41.80  Fe3Fe(OH)8Cl
  GR-CO3           -7.68     47.82   55.50  Fe4Fe2(OH)12CO3:2H2O
  GR-SO4           -6.58     51.72   58.30  Fe4Fe2(OH)12SO4
  Greenalite        0.62     22.44   21.82  Fe3Si2O5(OH)4
  Greigite        -17.29    -32.32  -15.03  Fe3S4
  Gypsum            0.00     -4.61   -4.61  CaSO4:2H2O
  Gyrolite         -9.22     13.12   22.34  Ca2Si3O7.5(OH):2H2O
  H2(g)            -8.67     -8.67    0.00  H2
  H2O(g)           -1.50    -43.00  -41.50  H2O
  H2S(g)           -9.74    -17.74   -8.00  H2S
  Halite           -2.52     -0.93    1.59  NaCl
  HCl(g)          -13.96     -7.67    6.29  HCl
  Hematite(cr)      3.35      2.52   -0.83  Fe2O3
  Hematite(s)       2.62      2.52   -0.10  Fe2O3
  Hexahydrite      -3.17     -4.81   -1.64  Mg(SO4):6H2O
  Hillebrandite   -16.34     20.61   36.95  Ca2SiO3(OH)2:0.17H2O
  Hydrophilite    -14.93     -3.16   11.77  CaCl2
  Jaffeite        -48.48     65.58  114.06  Ca6(Si2O7)(OH)6
  Jennite         -60.24     87.09  147.33  Ca9Si6O16(OH)10:6H2O
  K(cr)           -49.46      0.03   49.49  K
  K(OH)(s)        -20.24      4.36   24.60  K(OH)
  K-carbonate     -14.98    -11.95    3.03  K2CO3:1.5H2O
  K-trona         -16.77    -25.87   -9.10  K2NaH(CO3)2:2H2O
  K2CO3(cr)       -17.35    -11.94    5.41  K2CO3
  K2O(s)          -75.39      8.72   84.11  K2O
  Kainite          -7.91     -8.10   -0.19  KMgCl(SO4):3H2O
  Kalicinite       -6.24    -16.30  -10.06  KHCO3
  Lansfordite      -3.65     -8.69   -5.04  Mg(CO3):5H2O
  Lawrencite      -14.29     -5.36    8.93  FeCl2
  Leonhardtite     -3.91     -4.80   -0.89  MgSO4:4H2O
  Leonite          -8.87    -12.85   -3.98  K2Mg(SO4)2:4H2O
  Lepidocrocite    -0.60      1.26    1.86  FeOOH
  Lizardite        -4.55     28.53   33.08  Mg3Si2O5(OH)4
  Mackinawite      -4.56     -7.75   -3.19  FeS
  Maghemite        -0.27      2.52    2.79  Fe2O3
  Magnesite(nat)    0.26     -8.65   -8.91  MgCO3
  Magnesite(syn)   -0.55     -8.65   -8.10  Mg(CO3)
  Magnetite         2.16     12.50   10.34  Fe3O4
  Melanterite      -4.57     -6.85   -2.28  FeSO4:7H2O
  Mercallite      -11.02    -12.42   -1.40  KHSO4
  Mg(cr)          -76.43      3.35   79.78  Mg
  Mg(SO4)(s)      -13.86     -4.76    9.10  Mg(SO4)
  Mg(SO4):H2O(s)   -4.65     -4.77   -0.12  Mg(SO4):H2O
  Mg-oxychlorur    -9.72     16.31   26.03  Mg2Cl(OH)3:4H2O
  Mg5(CO3)4(OH)2:4H2O(s) -12.32    -22.63  -10.31  Mg5(CO3)4(OH)2:4H2O
  MgCl2(s)        -25.36     -3.33   22.03  MgCl2
  MgCl2:2H2O(s)   -16.25     -3.35   12.90  MgCl2:2H2O
  MgCl2:4H2O(s)   -10.80     -3.36    7.44  MgCl2:4H2O
  MgCl2:H2O(s)    -19.56     -3.34   16.22  MgCl2:H2O
  Minnesotaite     -0.02     14.97   14.99  Fe3Si4O10(OH)2
  Mirabilite       -2.14     -3.37   -1.23  Na2SO4:10H2O
  Monosulfate-Fe  -31.68     34.37   66.05  Ca4Fe2(SO4)(OH)12:6H2O
  Na(cr)          -43.48      2.41   45.89  Na
  Na2(CO3)(cr)     -8.30     -7.18    1.12  Na2(CO3)
  Na2CO3:7H2O(s)   -6.77     -7.23   -0.46  Na2CO3:7H2O
  Na2O(cr)        -53.98     13.48   67.46  Na2O
  Nahcolite        -3.18    -13.92  -10.74  Na(HCO3)
  Natron           -6.42     -7.25   -0.83  Na2(CO3):10H2O
  Nesquehonite     -3.57     -8.67   -5.10  Mg(CO3):3H2O
  O2(g)           -65.77    -68.67   -2.90  O2
  Okenite          -4.50      4.68    9.18  CaSi2O5:2H2O
  Pentahydrite     -3.52     -4.80   -1.28  MgSO4:5H2O
  Periclase        -9.57     12.01   21.58  MgO
  Picromerite      -8.53    -12.86   -4.33  K2Mg(SO4)2:6H2O
  Pirssonite       -6.76    -15.67   -8.91  Na2Ca(CO3)2:2H2O
  Polyhalite       -8.28    -22.02  -13.74  K2MgCa2(SO4)4:2H2O
  Portlandite     -10.64     12.17   22.81  Ca(OH)2
  Pyrite            0.00    -16.82  -16.82  FeS2
  Pyrrhotite       -2.60     -7.92   -5.32  Fe0.87S
  Quartz           -0.00     -3.74   -3.74  SiO2
  S(cr)            -6.93     -9.07   -2.14  S
  Schwertmannite(cr) -15.43     -6.71    8.72  Fe8O8(OH)6SO4
  Si(cr)          -84.25    -21.06   63.19  Si
  Siderite          0.00    -10.68  -10.68  Fe(CO3)
  SiO2(am)         -1.03     -3.74   -2.71  SiO2
  SO2(g)          -20.12    -29.06   -8.94  SO2
  Sr(cr)          -97.30      1.49   98.79  Sr
  Sr(OH)2(s)      -17.36     10.15   27.51  Sr(OH)2
  Sr(OH)2:8H2O(s) -14.24     10.08   24.32  Sr(OH)2:8H2O
  Sr2SiO4(s)      -26.68     16.57   43.25  Sr2SiO4
  SrCl2(s)        -13.31     -5.19    8.12  SrCl2
  SrCl2:2H2O(s)    -8.67     -5.20    3.47  SrCl2:2H2O
  SrCl2:6H2O(s)    -6.85     -5.24    1.61  SrCl2:6H2O
  SrCl2:H2O(s)    -10.11     -5.20    4.91  SrCl2:H2O
  SrO(cr)         -31.83     10.15   41.98  SrO
  SrS(s)          -22.26     -7.58   14.68  SrS
  SrSiO3(s)        -6.75      6.41   13.16  SrSiO3
  Strontianite     -1.24    -10.51   -9.27  Sr(CO3)
  Sylvite          -4.18     -3.31    0.87  KCl
  Syngenite        -5.24    -12.69   -7.45  K2Ca(SO4)2:6H2O
  Tachyhydrite    -27.30     -9.92   17.38  Mg2CaCl6:12H2O
  Talc             -3.86     21.06   24.92  Mg3Si4O10(OH)2
  Thenardite       -2.93     -3.29   -0.36  Na2SO4
  Thermonatrite    -7.66     -7.18    0.48  Na2(CO3):H2O
  Tobermorite-11A -27.16     38.42   65.58  Ca5Si6O16.5(OH):5H2O
  Tobermorite-14A -24.56     38.38   62.94  Ca5Si6O16.5(OH):10H2O
  Troilite         -3.76     -7.75   -3.99  FeS
  Trona            -9.73    -21.11  -11.38  Na3H(CO3)2:2H2O
  Truscottite     -36.72     40.36   77.08  Ca7Si12O29(OH)4:H2O
  Vaterite         -0.58     -8.48   -7.90  CaCO3
  Xonotlite       -40.71     50.63   91.34  Ca6Si6O17(OH)2

**For a gas, SI = log10(fugacity). Fugacity = pressure * phi / 1 atm.
  For ideal gases, phi = 1.

Reaction step 2.

Using solution 2.	High_SO4_high_sal 
Using pure phase assemblage 1.	
Using reaction 1.	

Reaction 1.	

	  6.000e+00 moles of the following reaction have been added:

	                 Relative
	Reactant            moles

	H2O                 -1.00000

	                 Relative
	Element             moles
	H                   -2.00000
	O                   -1.00000

-------------------------------Phase assemblage--------------------------------

                                                      Moles in assemblage
Phase               SI  log IAP  log K(T, P)   Initial       Final       Delta

Calcite           0.00    -8.48     -8.48    1.000e+00   9.977e-01  -2.314e-03
Celestite         0.00    -6.62     -6.62    1.000e+00   1.000e+00   1.826e-05
Dolomite          0.00   -17.13    -17.13    1.000e+00   1.001e+00   1.326e-03
Gypsum            0.00    -4.61     -4.61    0.000e+00   3.179e-03   3.179e-03
Pyrite           -0.00   -16.82    -16.82    1.000e+00   1.000e+00   1.773e-10
Quartz            0.00    -3.74     -3.74    1.000e+00   1.000e+00   1.982e-05
Siderite          0.00   -10.68    -10.68    1.000e+00   9.997e-01  -3.315e-04

-----------------------------Solution composition------------------------------

	Elements           Molality       Moles

	C                 1.683e-03   1.501e-03
	Ca                3.138e-02   2.798e-02
	Cl                5.587e-01   4.983e-01
	Fe                3.717e-04   3.315e-04
	K                 2.240e-03   1.998e-03
	Mg                2.437e-02   2.173e-02
	Na                5.225e-01   4.660e-01
	S                 3.873e-02   3.454e-02
	Si                1.759e-04   1.569e-04
	Sr                3.932e-04   3.506e-04

----------------------------Description of solution----------------------------

                                       pH  =   7.203      Charge balance
                                       pe  =  -2.864      Adjusted to redox equilibrium
                        Activity of water  =   0.981
                 Ionic strength (mol/kgw)  =   6.895e-01
                       Mass of water (kg)  =   8.918e-01
                 Total alkalinity (eq/kg)  =   1.590e-03
                       Total CO2 (mol/kg)  =   1.683e-03
                         Temperature (°C)  =  25.00
                  Electrical balance (eq)  =   1.244e-11
 Percent error, 100*(Cat-|An|)/(Cat+|An|)  =   0.00
                               Iterations  =  26
                         Gamma iterations  =   8
                      Osmotic coefficient  =   0.91210
                                  Total H  = 9.900675e+01
                                  Total O  = 4.964556e+01

----------------------------Distribution of species----------------------------

                                               Log       Log       Log    mole V
   Species          Molality    Activity  Molality  Activity     Gamma   cm³/mol

   OH-             2.302e-07   1.564e-07    -6.638    -6.806    -0.168     (0)  
   H+              8.308e-08   6.271e-08    -7.081    -7.203    -0.122      0.00
   H2O             5.551e+01   9.810e-01     1.744    -0.008     0.000     18.07
C(-4)         4.211e-18
   CH4             4.211e-18   4.211e-18   -17.376   -17.376     0.000     (0)  
   CH3-            0.000e+00   0.000e+00   -55.984   -56.173    -0.189     (0)  
C(4)          1.683e-03
   HCO3-           1.249e-03   8.090e-04    -2.903    -3.092    -0.189     (0)  
   Na(HCO3)        1.586e-04   1.586e-04    -3.800    -3.800     0.000     (0)  
   CO2             1.158e-04   1.158e-04    -3.936    -3.936     0.000     (0)  
   Ca(HCO3)+       8.628e-05   5.589e-05    -4.064    -4.253    -0.189     (0)  
   Mg(HCO3)+       5.081e-05   3.291e-05    -4.294    -4.483    -0.189     (0)  
   Na(CO3)-        6.047e-06   3.917e-06    -5.218    -5.407    -0.189     (0)  
   CaCO3           5.495e-06   5.495e-06    -5.260    -5.260     0.000     (0)  
   FeCO3           3.890e-06   3.890e-06    -5.410    -5.410     0.000     (0)  
   CO3-2           3.774e-06   6.034e-07    -5.423    -6.219    -0.796     (0)  
   Mg(CO3)         2.138e-06   2.138e-06    -5.670    -5.670     0.000     (0)  
   Sr(HCO3)+       9.756e-07   6.319e-07    -6.011    -6.199    -0.189     (0)  
   Sr(CO3)         2.011e-08   2.011e-08    -7.697    -7.697     0.000     (0)  
   Fe(OH)CO3       1.995e-09   1.995e-09    -8.700    -8.700     0.000     (0)  
   Fe(CO3)2-2      7.853e-10   1.382e-10    -9.105    -9.859    -0.754     (0)  
   Fe(CO3)3-3      4.615e-14   9.264e-16   -13.336   -15.033    -1.697     (0)  
   CO              2.068e-18   2.068e-18   -17.685   -17.685     0.000     (0)  
Ca            3.138e-02
   Ca+2            2.608e-02   5.488e-03    -1.584    -2.261    -0.677     (0)  
   Ca(SO4)         5.208e-03   5.208e-03    -2.283    -2.283     0.000     (0)  
   Ca(HCO3)+       8.628e-05   5.589e-05    -4.064    -4.253    -0.189     (0)  
   CaCO3           5.495e-06   5.495e-06    -5.260    -5.260     0.000     (0)  
   Ca(H3SiO4)+     3.499e-08   2.267e-08    -7.456    -7.645    -0.189     (0)  
   Ca(OH)+         2.200e-08   1.425e-08    -7.658    -7.846    -0.189     (0)  
   Ca(S2O3)        8.402e-17   8.402e-17   -16.076   -16.076     0.000     (0)  
Cl            5.587e-01
   Cl-             5.537e-01   3.777e-01    -0.257    -0.423    -0.166     (0)  
   MgCl+           4.844e-03   3.137e-03    -2.315    -2.503    -0.189     (0)  
   FeCl+           1.647e-04   1.308e-04    -3.783    -3.883    -0.100     (0)  
   SrCl+           5.111e-05   3.311e-05    -4.291    -4.480    -0.189     (0)  
   FeCl2+          1.541e-19   9.984e-20   -18.812   -19.001    -0.189     (0)  
   FeCl+2          1.325e-19   5.274e-20   -18.878   -19.278    -0.400     (0)  
   FeCl3           2.380e-21   2.380e-21   -20.624   -20.624     0.000     (0)  
   FeCl4-          1.388e-23   8.988e-24   -22.858   -23.046    -0.189     (0)  
   Cl2             0.000e+00   0.000e+00   -53.785   -53.785     0.000     (0)  
   ClO4-           0.000e+00   0.000e+00  -153.369  -153.540    -0.171     (0)  
Fe(2)         3.717e-04
   FeCl+           1.647e-04   1.308e-04    -3.783    -3.883    -0.100     (0)  
   Fe+2            1.584e-04   3.462e-05    -3.800    -4.461    -0.660     (0)  
   Fe(SO4)         4.432e-05   4.432e-05    -4.353    -4.353     0.000     (0)  
   FeCO3           3.890e-06   3.890e-06    -5.410    -5.410     0.000     (0)  
   Fe(OH)+         4.702e-07   3.046e-07    -6.328    -6.516    -0.189     (0)  
   Fe(CO3)2-2      7.853e-10   1.382e-10    -9.105    -9.859    -0.754     (0)  
   Fe(HS)+         3.549e-11   2.299e-11   -10.450   -10.639    -0.189     (0)  
   Fe(OH)2         1.225e-11   1.225e-11   -10.912   -10.912     0.000     (0)  
   Fe(OH)3-        2.958e-17   1.916e-17   -16.529   -16.718    -0.189     (0)  
   Fe(HS)2         8.986e-20   8.986e-20   -19.046   -19.046     0.000     (0)  
   Fe(OH)4-2       5.638e-22   9.926e-23   -21.249   -22.003    -0.754     (0)  
Fe(3)         2.025e-09
   Fe(OH)CO3       1.995e-09   1.995e-09    -8.700    -8.700     0.000     (0)  
   Fe(OH)2+        2.525e-11   1.635e-11   -10.598   -10.786    -0.189     (0)  
   Fe(OH)3         4.446e-12   4.446e-12   -11.352   -11.352     0.000     (0)  
   Fe(OH)4-        9.793e-14   6.343e-14   -13.009   -13.198    -0.189     (0)  
   Fe(CO3)3-3      4.615e-14   9.264e-16   -13.336   -15.033    -1.697     (0)  
   Fe(OH)+2        2.093e-15   4.670e-16   -14.679   -15.331    -0.651     (0)  
   Fe(H3SiO4)+2    1.532e-16   2.697e-17   -15.815   -16.569    -0.754     (0)  
   Fe(SO4)+        5.380e-19   3.485e-19   -18.269   -18.458    -0.189     (0)  
   Fe(SO4)2-       2.334e-19   1.512e-19   -18.632   -18.821    -0.189     (0)  
   FeCl2+          1.541e-19   9.984e-20   -18.812   -19.001    -0.189     (0)  
   FeCl+2          1.325e-19   5.274e-20   -18.878   -19.278    -0.400     (0)  
   Fe+3            7.971e-20   4.216e-21   -19.098   -20.375    -1.277     (0)  
   FeCl3           2.380e-21   2.380e-21   -20.624   -20.624     0.000     (0)  
   FeCl4-          1.388e-23   8.988e-24   -22.858   -23.046    -0.189     (0)  
   Fe2(OH)2+4      6.858e-27   6.585e-30   -26.164   -29.181    -3.018     (0)  
   FeS2O3+         3.536e-32   2.291e-32   -31.451   -31.640    -0.189     (0)  
   Fe3(OH)4+5      1.167e-34   2.250e-39   -33.933   -38.648    -4.715     (0)  
H(0)          3.504e-12
   H2              1.752e-12   1.752e-12   -11.756   -11.756     0.000     (0)  
K             2.240e-03
   K+              2.240e-03   1.451e-03    -2.650    -2.838    -0.189     (0)  
Mg            2.437e-02
   Mg+2            1.654e-02   3.710e-03    -1.781    -2.431    -0.649     (0)  
   MgCl+           4.844e-03   3.137e-03    -2.315    -2.503    -0.189     (0)  
   Mg(SO4)         2.929e-03   2.929e-03    -2.533    -2.533     0.000     (0)  
   Mg(HCO3)+       5.081e-05   3.291e-05    -4.294    -4.483    -0.189     (0)  
   Mg(CO3)         2.138e-06   2.138e-06    -5.670    -5.670     0.000     (0)  
   Mg(OH)+         1.872e-07   1.213e-07    -6.728    -6.916    -0.189     (0)  
   Mg(H3SiO4)+     4.207e-08   2.725e-08    -7.376    -7.565    -0.189     (0)  
   Mg(S2O3)        1.676e-16   1.676e-16   -15.776   -15.776     0.000     (0)  
   Mg4(OH)4+4      2.101e-18   2.018e-21   -17.677   -20.695    -3.018     (0)  
Na            5.225e-01
   Na+             5.224e-01   3.486e-01    -0.282    -0.458    -0.176     (0)  
   Na(HCO3)        1.586e-04   1.586e-04    -3.800    -3.800     0.000     (0)  
   Na(CO3)-        6.047e-06   3.917e-06    -5.218    -5.407    -0.189     (0)  
   Na(S2O3)-       1.500e-15   9.713e-16   -14.824   -15.013    -0.189     (0)  
O(0)          0.000e+00
   O2              0.000e+00   0.000e+00   -68.654   -68.654     0.000     (0)  
S(-2)         1.009e-10
   HS-             4.685e-11   3.034e-11   -10.329   -10.518    -0.189     (0)  
   Fe(HS)+         3.549e-11   2.299e-11   -10.450   -10.639    -0.189     (0)  
   H2S             1.860e-11   1.860e-11   -10.731   -10.731     0.000     (0)  
   Fe(HS)2         8.986e-20   8.986e-20   -19.046   -19.046     0.000     (0)  
   S-2             2.184e-20   3.844e-21   -19.661   -20.415    -0.754     (0)  
   S2-2            7.162e-23   1.261e-23   -22.145   -22.899    -0.754     (0)  
   S3-2            6.932e-28   1.220e-28   -27.159   -27.914    -0.754     (0)  
   S4-2            5.330e-34   9.383e-35   -33.273   -34.028    -0.754     (0)  
   S5-2            2.469e-40   0.000e+00   -39.607   -40.362    -0.754     (0)  
S(2)          1.128e-14
   S2O3-2          3.885e-15   6.839e-16   -14.411   -15.165    -0.754     (0)  
   Na(S2O3)-       1.500e-15   9.713e-16   -14.824   -15.013    -0.189     (0)  
   Mg(S2O3)        1.676e-16   1.676e-16   -15.776   -15.776     0.000     (0)  
   Ca(S2O3)        8.402e-17   8.402e-17   -16.076   -16.076     0.000     (0)  
   Sr(S2O3)        3.870e-18   3.870e-18   -17.412   -17.412     0.000     (0)  
   H(S2O3)-        3.475e-21   2.251e-21   -20.459   -20.648    -0.189     (0)  
   H2(S2O3)        5.619e-28   5.619e-28   -27.250   -27.250     0.000     (0)  
   FeS2O3+         3.536e-32   2.291e-32   -31.451   -31.640    -0.189     (0)  
S(3)          4.882e-34
   S2O4-2          2.441e-34   4.297e-35   -33.612   -34.367    -0.754     (0)  
   HS2O4-          1.315e-39   8.521e-40   -38.881   -39.070    -0.189     (0)  
   H2S2O4          0.000e+00   0.000e+00   -45.972   -45.972     0.000     (0)  
S(4)          1.840e-14
   SO3-2           1.497e-14   2.394e-15   -13.825   -14.621    -0.796     (0)  
   H(SO3)-         3.428e-15   2.221e-15   -14.465   -14.654    -0.189     (0)  
   SO2             1.028e-20   1.028e-20   -19.988   -19.988     0.000     (0)  
   H2(SO3)         1.009e-20   1.009e-20   -19.996   -19.996     0.000     (0)  
   S2O5-2          9.240e-31   1.627e-31   -30.034   -30.789    -0.754     (0)  
   S4O6-2          7.509e-37   1.322e-37   -36.124   -36.879    -0.754     (0)  
   S3O6-2          0.000e+00   0.000e+00   -43.750   -44.505    -0.754     (0)  
   S5O6-2          0.000e+00   0.000e+00   -57.889   -58.643    -0.754     (0)  
S(6)          3.873e-02
   SO4-2           3.050e-02   4.648e-03    -1.516    -2.333    -0.817     (0)  
   Ca(SO4)         5.208e-03   5.208e-03    -2.283    -2.283     0.000     (0)  
   Mg(SO4)         2.929e-03   2.929e-03    -2.533    -2.533     0.000     (0)  
   Sr(SO4)         4.786e-05   4.786e-05    -4.320    -4.320     0.000     (0)  
   Fe(SO4)         4.432e-05   4.432e-05    -4.353    -4.353     0.000     (0)  
   H(SO4)-         4.349e-08   2.784e-08    -7.362    -7.555    -0.194     (0)  
   Fe(SO4)+        5.380e-19   3.485e-19   -18.269   -18.458    -0.189     (0)  
   Fe(SO4)2-       2.334e-19   1.512e-19   -18.632   -18.821    -0.189     (0)  
   HSO5-           0.000e+00   0.000e+00   -60.889   -61.077    -0.189     (0)  
   S2O8-2          0.000e+00   0.000e+00   -75.020   -75.774    -0.754     (0)  
Si            1.759e-04
   H4(SiO4)        1.751e-04   1.751e-04    -3.757    -3.757     0.000     (0)  
   H3(SiO4)-       6.861e-07   4.037e-07    -6.164    -6.394    -0.230     (0)  
   Mg(H3SiO4)+     4.207e-08   2.725e-08    -7.376    -7.565    -0.189     (0)  
   Ca(H3SiO4)+     3.499e-08   2.267e-08    -7.456    -7.645    -0.189     (0)  
   Si2O2(OH)5-     2.680e-09   1.576e-09    -8.572    -8.802    -0.230     (0)  
   Si2O3(OH)4-2    2.153e-12   3.165e-13   -11.667   -12.500    -0.833     (0)  
   H2(SiO4)-2      2.067e-12   3.226e-13   -11.685   -12.491    -0.807     (0)  
   Si4O6(OH)6-2    3.685e-16   6.487e-17   -15.434   -16.188    -0.754     (0)  
   Fe(H3SiO4)+2    1.532e-16   2.697e-17   -15.815   -16.569    -0.754     (0)  
   Si3O6(OH)3-3    7.781e-18   1.156e-19   -17.109   -18.937    -1.828     (0)  
   Si3O5(OH)5-3    6.063e-18   9.010e-20   -17.217   -19.045    -1.828     (0)  
   Si4O8(OH)4-4    5.899e-23   4.144e-26   -22.229   -25.383    -3.153     (0)  
   Si4O7(OH)6-4    5.329e-23   5.117e-26   -22.273   -25.291    -3.018     (0)  
   Si6O15-6        5.504e-35   0.000e+00   -34.259   -41.049    -6.790     (0)  
Sr            3.932e-04
   Sr+2            2.932e-04   5.161e-05    -3.533    -4.287    -0.754     (0)  
   SrCl+           5.111e-05   3.311e-05    -4.291    -4.480    -0.189     (0)  
   Sr(SO4)         4.786e-05   4.786e-05    -4.320    -4.320     0.000     (0)  
   Sr(HCO3)+       9.756e-07   6.319e-07    -6.011    -6.199    -0.189     (0)  
   Sr(CO3)         2.011e-08   2.011e-08    -7.697    -7.697     0.000     (0)  
   Sr(OH)+         6.393e-11   4.141e-11   -10.194   -10.383    -0.189     (0)  
   Sr(S2O3)        3.870e-18   3.870e-18   -17.412   -17.412     0.000     (0)  

------------------------------Saturation indices-------------------------------

  Phase               SI** log IAP   log K(298 K,   1 atm)

  Acmite           -0.41      0.48    0.89  NaFeSi2O6
  Afwillite       -20.52     28.90   49.42  Ca3Si2O4(OH)6
  Anhydrite        -0.15     -4.59   -4.44  Ca(SO4)
  Antarcticite     -7.10     -3.16    3.94  CaCl2:6H2O
  Antigorite      -52.92    446.97  499.89  Mg48Si34O85(OH)62
  Aragonite        -0.17     -8.48   -8.31  CaCO3
  Arcanite         -6.16     -8.01   -1.85  K2SO4
  Artinite         -6.53      3.28    9.81  Mg2(CO3)(OH)2:3H2O
  Bassanite        -0.68     -4.60   -3.92  CaSO4:0.5H2O
  Bischofite       -7.79     -3.33    4.46  MgCl2:6H2O
  Bloedite         -5.69     -8.04   -2.35  Na2Mg(SO4)2:4H2O
  Brucite          -5.14     11.96   17.10  Mg(OH)2
  Burkeite        -12.86    -13.63   -0.77  Na6(CO3)(SO4)2
  C(cr)            -5.80    -37.95  -32.15  C
  C2SH(alpha)     -15.02     20.52   35.54  Ca2(HSiO4)(OH)
  C3FH6           -33.53     38.80   72.33  Ca3Fe2(OH)12
  C4FH13          -44.20     50.88   95.08  Ca4Fe2(OH)14:6H2O
  Ca(cr)          -93.38      3.47   96.85  Ca
  Ca(SO3)(s)      -10.38    -16.88   -6.50  Ca(SO3)
  Ca2Cl2(OH)2:H2O(s) -17.52      9.01   26.53  Ca2Cl2(OH)2:H2O
  Ca2Fe2O5(s)     -30.03     26.71   56.74  Ca2Fe2O5
  Ca4Cl2(OH)6:13H2O(s) -35.56     33.17   68.73  Ca4Cl2(OH)6:13H2O
  CaCl2:2H2O(cr)  -11.07     -3.12    7.95  CaCl2:2H2O
  CaCl2:4H2O(cr)   -8.49     -3.14    5.35  CaCl2:4H2O
  CaCl2:H2O(s)    -10.96     -3.11    7.85  CaCl2:H2O
  CaCO3:H2O(s)     -0.89     -8.49   -7.60  CaCO3:H2O
  CaFe2O4(s)       -6.66     14.58   21.24  CaFe2O4
  Calcite           0.00     -8.48   -8.48  CaCO3
  CaMg3(CO3)4(s)   -3.62    -34.43  -30.81  CaMg3(CO3)4
  CaO(cr)         -20.56     12.14   32.70  CaO
  Carnallite      -10.92     -6.59    4.33  KMgCl3:6H2O
  Celestite         0.00     -6.62   -6.62  Sr(SO4)
  CH4(g)          -14.26    -55.31  -41.05  CH4
  Chukanovite      -3.72     -0.75    2.97  Fe2(OH)2CO3
  Cl2(g)          -52.55     -6.57   45.98  Cl2
  CO(g)           -14.64    -29.28  -14.64  CO
  CO2(g)           -2.47    -20.62  -18.15  CO2
  Cristobalite     -0.58     -3.74   -3.16  SiO2
  Cronstedtite-Th   2.45     18.56   16.11  Fe4SiO5(OH)4
  CSH0.8           -5.09      5.96   11.05  Ca0.8SiO2.8:1.54H2O
  CSH1.2           -8.49     10.81   19.30  Ca1.2SiO3.2:2.06H2O
  CSH1.6          -12.34     15.66   28.00  Ca1.6SiO3.6:2.58H2O
  Dolomite          0.00    -17.13  -17.13  CaMg(CO3)2
  Epsonite         -2.94     -4.82   -1.88  Mg(SO4):7H2O
  Ettringite-Fe   -29.75     24.80   54.55  Ca6Fe2(SO4)3(OH)12:26H2O
  Fayalite         -3.42     16.13   19.55  Fe2(SiO4)
  Fe(alpha,cr)    -14.62      1.27   15.89  Fe
  Fe(OH)2(cr)      -2.85      9.93   12.78  Fe(OH)2
  Fe0.932O(s)      -3.66      9.85   13.51  Fe0.932O
  Fe3O4(s)         -0.22     12.38   12.60  Fe3O4
  FeO(s)           -3.45      9.94   13.39  FeO
  Ferrihydrite(am)  -2.71      1.21    3.92  Fe(OH)3
  Ferrihydrite(cr)  -0.01      1.21    1.22  Fe(OH)3
  Ferrihydrite(s)  -1.57      1.21    2.78  Fe(OH)3
  Ferrosilite     -26.51      6.20   32.71  FeSiO3
  FeS(am)          -4.83     -7.78   -2.95  FeS
  Foshagite       -28.65     37.31   65.96  Ca4Si3O9(OH)2:0.5H2O
  Gaylussite       -6.23    -15.66   -9.43  CaNa2(CO3)2:5H2O
  Glaserite       -19.67    -27.28   -7.61  Na2K6(SO4)4
  Glauberite       -9.81     -7.84    1.97  Na2Ca(SO4)2
  Goethite          1.05      1.22    0.17  FeOOH
  GR-Cl            -5.37     36.43   41.80  Fe3Fe(OH)8Cl
  GR-CO3           -7.90     47.60   55.50  Fe4Fe2(OH)12CO3:2H2O
  GR-SO4           -6.79     51.51   58.30  Fe4Fe2(OH)12SO4
  Greenalite        0.49     22.31   21.82  Fe3Si2O5(OH)4
  Greigite        -17.34    -32.37  -15.03  Fe3S4
  Gypsum            0.00     -4.61   -4.61  CaSO4:2H2O
  Gyrolite         -9.31     13.03   22.34  Ca2Si3O7.5(OH):2H2O
  H2(g)            -8.68     -8.68    0.00  H2
  H2O(g)           -1.50    -43.00  -41.50  H2O
  H2S(g)           -9.72    -17.72   -8.00  H2S
  Halite           -2.47     -0.88    1.59  NaCl
  HCl(g)          -13.92     -7.63    6.29  HCl
  Hematite(cr)      3.27      2.44   -0.83  Fe2O3
  Hematite(s)       2.54      2.44   -0.10  Fe2O3
  Hexahydrite      -3.17     -4.81   -1.64  Mg(SO4):6H2O
  Hillebrandite   -16.43     20.52   36.95  Ca2SiO3(OH)2:0.17H2O
  Hydrophilite    -14.88     -3.11   11.77  CaCl2
  Jaffeite        -48.75     65.31  114.06  Ca6(Si2O7)(OH)6
  Jennite         -60.63     86.70  147.33  Ca9Si6O16(OH)10:6H2O
  K(cr)           -49.46      0.03   49.49  K
  K(OH)(s)        -20.24      4.36   24.60  K(OH)
  K-carbonate     -14.94    -11.91    3.03  K2CO3:1.5H2O
  K-trona         -16.69    -25.79   -9.10  K2NaH(CO3)2:2H2O
  K2CO3(cr)       -17.31    -11.90    5.41  K2CO3
  K2O(s)          -75.39      8.72   84.11  K2O
  Kainite          -7.86     -8.05   -0.19  KMgCl(SO4):3H2O
  Kalicinite       -6.20    -16.26  -10.06  KHCO3
  Lansfordite      -3.65     -8.69   -5.04  Mg(CO3):5H2O
  Lawrencite      -14.24     -5.31    8.93  FeCl2
  Leonhardtite     -3.91     -4.80   -0.89  MgSO4:4H2O
  Leonite          -8.83    -12.81   -3.98  K2Mg(SO4)2:4H2O
  Lepidocrocite    -0.64      1.22    1.86  FeOOH
  Lizardite        -4.68     28.40   33.08  Mg3Si2O5(OH)4
  Mackinawite      -4.59     -7.78   -3.19  FeS
  Maghemite        -0.35      2.44    2.79  Fe2O3
  Magnesite(nat)    0.26     -8.65   -8.91  MgCO3
  Magnesite(syn)   -0.55     -8.65   -8.10  Mg(CO3)
  Magnetite         2.04     12.38   10.34  Fe3O4
  Melanterite      -4.57     -6.85   -2.28  FeSO4:7H2O
  Mercallite      -10.97    -12.37   -1.40  KHSO4
  Mg(cr)          -76.48      3.30   79.78  Mg
  Mg(SO4)(s)      -13.86     -4.76    9.10  Mg(SO4)
  Mg(SO4):H2O(s)   -4.65     -4.77   -0.12  Mg(SO4):H2O
  Mg-oxychlorur    -9.76     16.27   26.03  Mg2Cl(OH)3:4H2O
  Mg5(CO3)4(OH)2:4H2O(s) -12.37    -22.68  -10.31  Mg5(CO3)4(OH)2:4H2O
  MgCl2(s)        -25.31     -3.28   22.03  MgCl2
  MgCl2:2H2O(s)   -16.19     -3.29   12.90  MgCl2:2H2O
  MgCl2:4H2O(s)   -10.75     -3.31    7.44  MgCl2:4H2O
  MgCl2:H2O(s)    -19.50     -3.28   16.22  MgCl2:H2O
  Minnesotaite     -0.15     14.84   14.99  Fe3Si4O10(OH)2
  Mirabilite       -2.10     -3.33   -1.23  Na2SO4:10H2O
  Monosulfate-Fe  -31.89     34.16   66.05  Ca4Fe2(SO4)(OH)12:6H2O
  Na(cr)          -43.48      2.41   45.89  Na
  Na2(CO3)(cr)     -8.25     -7.13    1.12  Na2(CO3)
  Na2CO3:7H2O(s)   -6.73     -7.19   -0.46  Na2CO3:7H2O
  Na2O(cr)        -53.98     13.48   67.46  Na2O
  Nahcolite        -3.14    -13.88  -10.74  Na(HCO3)
  Natron           -6.39     -7.22   -0.83  Na2(CO3):10H2O
  Nesquehonite     -3.57     -8.67   -5.10  Mg(CO3):3H2O
  O2(g)           -65.75    -68.65   -2.90  O2
  Okenite          -4.54      4.64    9.18  CaSi2O5:2H2O
  Pentahydrite     -3.52     -4.80   -1.28  MgSO4:5H2O
  Periclase        -9.61     11.97   21.58  MgO
  Picromerite      -8.49    -12.82   -4.33  K2Mg(SO4)2:6H2O
  Pirssonite       -6.72    -15.63   -8.91  Na2Ca(CO3)2:2H2O
  Polyhalite       -8.24    -21.98  -13.74  K2MgCa2(SO4)4:2H2O
  Portlandite     -10.68     12.13   22.81  Ca(OH)2
  Pyrite           -0.00    -16.82  -16.82  FeS2
  Pyrrhotite       -2.62     -7.94   -5.32  Fe0.87S
  Quartz            0.00     -3.74   -3.74  SiO2
  S(cr)            -6.90     -9.04   -2.14  S
  Schwertmannite(cr) -15.71     -6.99    8.72  Fe8O8(OH)6SO4
  Si(cr)          -84.27    -21.08   63.19  Si
  Siderite          0.00    -10.68  -10.68  Fe(CO3)
  SiO2(am)         -1.03     -3.74   -2.71  SiO2
  SO2(g)          -20.08    -29.02   -8.94  SO2
  Sr(cr)          -97.35      1.44   98.79  Sr
  Sr(OH)2(s)      -17.41     10.10   27.51  Sr(OH)2
  Sr(OH)2:8H2O(s) -14.29     10.03   24.32  Sr(OH)2:8H2O
  Sr2SiO4(s)      -26.77     16.48   43.25  Sr2SiO4
  SrCl2(s)        -13.25     -5.13    8.12  SrCl2
  SrCl2:2H2O(s)    -8.62     -5.15    3.47  SrCl2:2H2O
  SrCl2:6H2O(s)    -6.79     -5.18    1.61  SrCl2:6H2O
  SrCl2:H2O(s)    -10.05     -5.14    4.91  SrCl2:H2O
  SrO(cr)         -31.87     10.11   41.98  SrO
  SrS(s)          -22.28     -7.60   14.68  SrS
  SrSiO3(s)        -6.79      6.37   13.16  SrSiO3
  Strontianite     -1.24    -10.51   -9.27  Sr(CO3)
  Sylvite          -4.13     -3.26    0.87  KCl
  Syngenite        -5.20    -12.65   -7.45  K2Ca(SO4)2:6H2O
  Tachyhydrite    -27.14     -9.76   17.38  Mg2CaCl6:12H2O
  Talc             -3.99     20.93   24.92  Mg3Si4O10(OH)2
  Thenardite       -2.89     -3.25   -0.36  Na2SO4
  Thermonatrite    -7.62     -7.14    0.48  Na2(CO3):H2O
  Tobermorite-11A -27.38     38.20   65.58  Ca5Si6O16.5(OH):5H2O
  Tobermorite-14A -24.79     38.15   62.94  Ca5Si6O16.5(OH):10H2O
  Troilite         -3.79     -7.78   -3.99  FeS
  Trona            -9.65    -21.03  -11.38  Na3H(CO3)2:2H2O
  Truscottite     -37.03     40.05   77.08  Ca7Si12O29(OH)4:H2O
  Vaterite         -0.58     -8.48   -7.90  CaCO3
  Xonotlite       -40.97     50.37   91.34  Ca6Si6O17(OH)2

**For a gas, SI = log10(fugacity). Fugacity = pressure * phi / 1 atm.
  For ideal gases, phi = 1.

Reaction step 3.

Using solution 2.	High_SO4_high_sal 
Using pure phase assemblage 1.	
Using reaction 1.	

Reaction 1.	

	  9.000e+00 moles of the following reaction have been added:

	                 Relative
	Reactant            moles

	H2O                 -1.00000

	                 Relative
	Element             moles
	H                   -2.00000
	O                   -1.00000

-------------------------------Phase assemblage--------------------------------

                                                      Moles in assemblage
Phase               SI  log IAP  log K(T, P)   Initial       Final       Delta

Calcite           0.00    -8.48     -8.48    1.000e+00   9.964e-01  -3.572e-03
Celestite         0.00    -6.62     -6.62    1.000e+00   1.000e+00   2.672e-05
Dolomite          0.00   -17.13    -17.13    1.000e+00   1.002e+00   1.954e-03
Gypsum            0.00    -4.61     -4.61    0.000e+00   4.881e-03   4.881e-03
Pyrite           -0.00   -16.82    -16.82    1.000e+00   1.000e+00   1.732e-10
Quartz           -0.00    -3.74     -3.74    1.000e+00   1.000e+00   2.972e-05
Siderite          0.00   -10.68    -10.68    1.000e+00   9.997e-01  -3.249e-04

-----------------------------Solution composition------------------------------

	Elements           Molality       Moles

	C                 1.785e-03   1.495e-03
	Ca                3.212e-02   2.691e-02
	Cl                5.948e-01   4.983e-01
	Fe                3.878e-04   3.249e-04
	K                 2.385e-03   1.998e-03
	Mg                2.519e-02   2.110e-02
	Na                5.563e-01   4.660e-01
	S                 3.919e-02   3.283e-02
	Si                1.754e-04   1.470e-04
	Sr                4.085e-04   3.422e-04

----------------------------Description of solution----------------------------

                                       pH  =   7.176      Charge balance
                                       pe  =  -2.834      Adjusted to redox equilibrium
                        Activity of water  =   0.980
                 Ionic strength (mol/kgw)  =   7.277e-01
                       Mass of water (kg)  =   8.377e-01
                 Total alkalinity (eq/kg)  =   1.679e-03
                       Total CO2 (mol/kg)  =   1.785e-03
                         Temperature (°C)  =  25.00
                  Electrical balance (eq)  =   2.871e-11
 Percent error, 100*(Cat-|An|)/(Cat+|An|)  =   0.00
                               Iterations  =  22
                         Gamma iterations  =   8
                      Osmotic coefficient  =   0.91375
                                  Total H  = 9.299994e+01
                                  Total O  = 4.663528e+01

----------------------------Distribution of species----------------------------

                                               Log       Log       Log    mole V
   Species          Molality    Activity  Molality  Activity     Gamma   cm³/mol

   OH-             2.166e-07   1.469e-07    -6.664    -6.833    -0.169     (0)  
   H+              8.794e-08   6.668e-08    -7.056    -7.176    -0.120      0.00
   H2O             5.551e+01   9.798e-01     1.744    -0.009     0.000     18.07
C(-4)         4.384e-18
   CH4             4.384e-18   4.384e-18   -17.358   -17.358     0.000     (0)  
   CH3-            0.000e+00   0.000e+00   -55.991   -56.182    -0.191     (0)  
C(4)          1.785e-03
   HCO3-           1.311e-03   8.448e-04    -2.882    -3.073    -0.191     (0)  
   Na(HCO3)        1.758e-04   1.758e-04    -3.755    -3.755     0.000     (0)  
   CO2             1.287e-04   1.287e-04    -3.890    -3.890     0.000     (0)  
   Ca(HCO3)+       9.223e-05   5.943e-05    -4.035    -4.226    -0.191     (0)  
   Mg(HCO3)+       5.431e-05   3.500e-05    -4.265    -4.456    -0.191     (0)  
   Na(CO3)-        6.336e-06   4.083e-06    -5.198    -5.389    -0.191     (0)  
   CaCO3           5.495e-06   5.495e-06    -5.260    -5.260     0.000     (0)  
   FeCO3           3.890e-06   3.890e-06    -5.410    -5.410     0.000     (0)  
   CO3-2           3.807e-06   5.925e-07    -5.419    -6.227    -0.808     (0)  
   Mg(CO3)         2.138e-06   2.138e-06    -5.670    -5.670     0.000     (0)  
   Sr(HCO3)+       1.040e-06   6.704e-07    -5.983    -6.174    -0.191     (0)  
   Sr(CO3)         2.006e-08   2.006e-08    -7.698    -7.698     0.000     (0)  
   Fe(OH)CO3       2.009e-09   2.009e-09    -8.697    -8.697     0.000     (0)  
   Fe(CO3)2-2      7.873e-10   1.357e-10    -9.104    -9.867    -0.763     (0)  
   Fe(CO3)3-3      5.001e-14   9.580e-16   -13.301   -15.019    -1.718     (0)  
   CO              2.263e-18   2.263e-18   -17.645   -17.645     0.000     (0)  
Ca            3.212e-02
   Ca+2            2.681e-02   5.589e-03    -1.572    -2.253    -0.681     (0)  
   Ca(SO4)         5.220e-03   5.220e-03    -2.282    -2.282     0.000     (0)  
   Ca(HCO3)+       9.223e-05   5.943e-05    -4.035    -4.226    -0.191     (0)  
   CaCO3           5.495e-06   5.495e-06    -5.260    -5.260     0.000     (0)  
   Ca(H3SiO4)+     3.361e-08   2.166e-08    -7.474    -7.664    -0.191     (0)  
   Ca(OH)+         2.115e-08   1.363e-08    -7.675    -7.866    -0.191     (0)  
   Ca(S2O3)        8.811e-17   8.811e-17   -16.055   -16.055     0.000     (0)  
Cl            5.948e-01
   Cl-             5.893e-01   4.011e-01    -0.230    -0.397    -0.167     (0)  
   MgCl+           5.265e-03   3.392e-03    -2.279    -2.469    -0.191     (0)  
   FeCl+           1.766e-04   1.414e-04    -3.753    -3.849    -0.097     (0)  
   SrCl+           5.542e-05   3.571e-05    -4.256    -4.447    -0.191     (0)  
   FeCl2+          1.908e-19   1.229e-19   -18.719   -18.910    -0.191     (0)  
   FeCl+2          1.488e-19   6.116e-20   -18.827   -19.214    -0.386     (0)  
   FeCl3           3.111e-21   3.111e-21   -20.507   -20.507     0.000     (0)  
   FeCl4-          1.936e-23   1.248e-23   -22.713   -22.904    -0.191     (0)  
   Cl2             0.000e+00   0.000e+00   -53.672   -53.672     0.000     (0)  
   ClO4-           0.000e+00   0.000e+00  -153.314  -153.487    -0.172     (0)  
Fe(2)         3.878e-04
   FeCl+           1.766e-04   1.414e-04    -3.753    -3.849    -0.097     (0)  
   Fe+2            1.624e-04   3.526e-05    -3.789    -4.453    -0.663     (0)  
   Fe(SO4)         4.443e-05   4.443e-05    -4.352    -4.352     0.000     (0)  
   FeCO3           3.890e-06   3.890e-06    -5.410    -5.410     0.000     (0)  
   Fe(OH)+         4.521e-07   2.913e-07    -6.345    -6.536    -0.191     (0)  
   Fe(CO3)2-2      7.873e-10   1.357e-10    -9.104    -9.867    -0.763     (0)  
   Fe(HS)+         3.569e-11   2.300e-11   -10.447   -10.638    -0.191     (0)  
   Fe(OH)2         1.100e-11   1.100e-11   -10.958   -10.958     0.000     (0)  
   Fe(OH)3-        2.509e-17   1.617e-17   -16.600   -16.791    -0.191     (0)  
   Fe(HS)2         8.834e-20   8.834e-20   -19.054   -19.054     0.000     (0)  
   Fe(OH)4-2       4.563e-22   7.866e-23   -21.341   -22.104    -0.763     (0)  
Fe(3)         2.038e-09
   Fe(OH)CO3       2.009e-09   2.009e-09    -8.697    -8.697     0.000     (0)  
   Fe(OH)2+        2.445e-11   1.576e-11   -10.612   -10.803    -0.191     (0)  
   Fe(OH)3         4.024e-12   4.024e-12   -11.395   -11.395     0.000     (0)  
   Fe(OH)4-        8.367e-14   5.392e-14   -13.077   -13.268    -0.191     (0)  
   Fe(CO3)3-3      5.001e-14   9.580e-16   -13.301   -15.019    -1.718     (0)  
   Fe(OH)+2        2.159e-15   4.790e-16   -14.666   -15.320    -0.654     (0)  
   Fe(H3SiO4)+2    1.603e-16   2.764e-17   -15.795   -16.558    -0.763     (0)  
   Fe(SO4)+        5.815e-19   3.747e-19   -18.235   -18.426    -0.191     (0)  
   Fe(SO4)2-       2.483e-19   1.600e-19   -18.605   -18.796    -0.191     (0)  
   FeCl2+          1.908e-19   1.229e-19   -18.719   -18.910    -0.191     (0)  
   FeCl+2          1.488e-19   6.116e-20   -18.827   -19.214    -0.386     (0)  
   Fe+3            8.572e-20   4.605e-21   -19.067   -20.337    -1.270     (0)  
   FeCl3           3.111e-21   3.111e-21   -20.507   -20.507     0.000     (0)  
   FeCl4-          1.936e-23   1.248e-23   -22.713   -22.904    -0.191     (0)  
   Fe2(OH)2+4      7.843e-27   6.930e-30   -26.106   -29.159    -3.054     (0)  
   FeS2O3+         3.998e-32   2.576e-32   -31.398   -31.589    -0.191     (0)  
   Fe3(OH)4+5      1.348e-34   2.281e-39   -33.870   -38.642    -4.771     (0)  
H(0)          3.445e-12
   H2              1.722e-12   1.722e-12   -11.764   -11.764     0.000     (0)  
K             2.385e-03
   K+              2.385e-03   1.537e-03    -2.623    -2.813    -0.191     (0)  
Mg            2.519e-02
   Mg+2            1.693e-02   3.778e-03    -1.771    -2.423    -0.651     (0)  
   MgCl+           5.265e-03   3.392e-03    -2.279    -2.469    -0.191     (0)  
   Mg(SO4)         2.936e-03   2.936e-03    -2.532    -2.532     0.000     (0)  
   Mg(HCO3)+       5.431e-05   3.500e-05    -4.265    -4.456    -0.191     (0)  
   Mg(CO3)         2.138e-06   2.138e-06    -5.670    -5.670     0.000     (0)  
   Mg(OH)+         1.800e-07   1.160e-07    -6.745    -6.936    -0.191     (0)  
   Mg(H3SiO4)+     4.040e-08   2.604e-08    -7.394    -7.584    -0.191     (0)  
   Mg(S2O3)        1.758e-16   1.758e-16   -15.755   -15.755     0.000     (0)  
   Mg4(OH)4+4      1.912e-18   1.689e-21   -17.719   -20.772    -3.054     (0)  
Na            5.563e-01
   Na+             5.561e-01   3.701e-01    -0.255    -0.432    -0.177     (0)  
   Na(HCO3)        1.758e-04   1.758e-04    -3.755    -3.755     0.000     (0)  
   Na(CO3)-        6.336e-06   4.083e-06    -5.198    -5.389    -0.191     (0)  
   Na(S2O3)-       1.648e-15   1.062e-15   -14.783   -14.974    -0.191     (0)  
O(0)          0.000e+00
   O2              0.000e+00   0.000e+00   -68.640   -68.640     0.000     (0)  
S(-2)         1.014e-10
   HS-             4.627e-11   2.981e-11   -10.335   -10.526    -0.191     (0)  
   Fe(HS)+         3.569e-11   2.300e-11   -10.447   -10.638    -0.191     (0)  
   H2S             1.943e-11   1.943e-11   -10.712   -10.712     0.000     (0)  
   Fe(HS)2         8.834e-20   8.834e-20   -19.054   -19.054     0.000     (0)  
   S-2             2.060e-20   3.551e-21   -19.686   -20.450    -0.763     (0)  
   S2-2            7.180e-23   1.238e-23   -22.144   -22.907    -0.763     (0)  
   S3-2            7.387e-28   1.274e-28   -27.132   -27.895    -0.763     (0)  
   S4-2            6.036e-34   1.041e-34   -33.219   -33.983    -0.763     (0)  
   S5-2            2.972e-40   0.000e+00   -39.527   -40.290    -0.763     (0)  
S(2)          1.200e-14
   S2O3-2          4.085e-15   7.042e-16   -14.389   -15.152    -0.763     (0)  
   Na(S2O3)-       1.648e-15   1.062e-15   -14.783   -14.974    -0.191     (0)  
   Mg(S2O3)        1.758e-16   1.758e-16   -15.755   -15.755     0.000     (0)  
   Ca(S2O3)        8.811e-17   8.811e-17   -16.055   -16.055     0.000     (0)  
   Sr(S2O3)        4.049e-18   4.049e-18   -17.393   -17.393     0.000     (0)  
   H(S2O3)-        3.825e-21   2.465e-21   -20.417   -20.608    -0.191     (0)  
   H2(S2O3)        6.543e-28   6.543e-28   -27.184   -27.184     0.000     (0)  
   FeS2O3+         3.998e-32   2.576e-32   -31.398   -31.589    -0.191     (0)  
S(3)          5.214e-34
   S2O4-2          2.607e-34   4.495e-35   -33.584   -34.347    -0.763     (0)  
   HS2O4-          1.471e-39   9.479e-40   -38.832   -39.023    -0.191     (0)  
   H2S2O4          0.000e+00   0.000e+00   -45.899   -45.899     0.000     (0)  
S(4)          1.846e-14
   SO3-2           1.491e-14   2.320e-15   -13.827   -14.635    -0.808     (0)  
   H(SO3)-         3.551e-15   2.288e-15   -14.450   -14.641    -0.191     (0)  
   SO2             1.128e-20   1.128e-20   -19.948   -19.948     0.000     (0)  
   H2(SO3)         1.105e-20   1.105e-20   -19.957   -19.957     0.000     (0)  
   S2O5-2          1.003e-30   1.729e-31   -29.999   -30.762    -0.763     (0)  
   S4O6-2          9.350e-37   1.612e-37   -36.029   -36.793    -0.763     (0)  
   S3O6-2          0.000e+00   0.000e+00   -43.682   -44.445    -0.763     (0)  
   S5O6-2          0.000e+00   0.000e+00   -57.767   -58.530    -0.763     (0)  
S(6)          3.919e-02
   SO4-2           3.094e-02   4.575e-03    -1.509    -2.340    -0.830     (0)  
   Ca(SO4)         5.220e-03   5.220e-03    -2.282    -2.282     0.000     (0)  
   Mg(SO4)         2.936e-03   2.936e-03    -2.532    -2.532     0.000     (0)  
   Sr(SO4)         4.786e-05   4.786e-05    -4.320    -4.320     0.000     (0)  
   Fe(SO4)         4.443e-05   4.443e-05    -4.352    -4.352     0.000     (0)  
   H(SO4)-         4.580e-08   2.914e-08    -7.339    -7.536    -0.196     (0)  
   Fe(SO4)+        5.815e-19   3.747e-19   -18.235   -18.426    -0.191     (0)  
   Fe(SO4)2-       2.483e-19   1.600e-19   -18.605   -18.796    -0.191     (0)  
   HSO5-           0.000e+00   0.000e+00   -60.860   -61.051    -0.191     (0)  
   S2O8-2          0.000e+00   0.000e+00   -74.964   -75.727    -0.763     (0)  
Si            1.754e-04
   H4(SiO4)        1.747e-04   1.747e-04    -3.758    -3.758     0.000     (0)  
   H3(SiO4)-       6.510e-07   3.787e-07    -6.186    -6.422    -0.235     (0)  
   Mg(H3SiO4)+     4.040e-08   2.604e-08    -7.394    -7.584    -0.191     (0)  
[...]
   FeCO3           3.890e-06   3.890e-06    -5.410    -5.410     0.000     (0)  
   Mg(CO3)         2.138e-06   2.138e-06    -5.670    -5.670     0.000     (0)  
   Sr(HCO3)+       1.722e-06   1.065e-06    -5.764    -5.973    -0.209     (0)  
   Sr(CO3)         1.955e-08   1.955e-08    -7.709    -7.709     0.000     (0)  
   Fe(OH)CO3       2.124e-09   2.124e-09    -8.673    -8.673     0.000     (0)  
   Fe(CO3)2-2      7.781e-10   1.139e-10    -9.109    -9.943    -0.834     (0)  
   Fe(CO3)3-3      8.884e-14   1.178e-15   -13.051   -14.929    -1.878     (0)  
   CO              4.518e-18   4.518e-18   -17.345   -17.345     0.000     (0)  
Ca            3.889e-02
   Ca+2            3.338e-02   6.659e-03    -1.477    -2.177    -0.700     (0)  
   Ca(SO4)         5.356e-03   5.356e-03    -2.271    -2.271     0.000     (0)  
   Ca(HCO3)+       1.567e-04   9.690e-05    -3.805    -4.014    -0.209     (0)  
   CaCO3           5.495e-06   5.495e-06    -5.260    -5.260     0.000     (0)  
   Ca(H3SiO4)+     2.494e-08   1.542e-08    -7.603    -7.812    -0.209     (0)  
   Ca(OH)+         1.590e-08   9.832e-09    -7.799    -8.007    -0.209     (0)  
   Ca(S2O3)        1.277e-16   1.277e-16   -15.894   -15.894     0.000     (0)  
Cl            9.713e-01
   Cl-             9.603e-01   6.451e-01    -0.018    -0.190    -0.173     (0)  
   MgCl+           1.051e-02   6.502e-03    -1.978    -2.187    -0.209     (0)  
   FeCl+           3.076e-04   2.711e-04    -3.512    -3.567    -0.055     (0)  
   SrCl+           1.078e-04   6.671e-05    -3.967    -4.176    -0.209     (0)  
   FeCl2+          1.070e-18   6.617e-19   -17.971   -18.179    -0.209     (0)  
   FeCl+2          3.395e-19   2.046e-19   -18.469   -18.689    -0.220     (0)  
   FeCl3           2.693e-20   2.693e-20   -19.570   -19.570     0.000     (0)  
   FeCl4-          2.809e-22   1.738e-22   -21.551   -21.760    -0.209     (0)  
   Cl2             0.000e+00   0.000e+00   -52.775   -52.775     0.000     (0)  
   ClO4-           0.000e+00   0.000e+00  -152.881  -153.065    -0.184     (0)  
Fe(2)         5.545e-04
   FeCl+           3.076e-04   2.711e-04    -3.512    -3.567    -0.055     (0)  
   Fe+2            1.971e-04   4.202e-05    -3.705    -4.377    -0.671     (0)  
   Fe(SO4)         4.559e-05   4.559e-05    -4.341    -4.341     0.000     (0)  
   FeCO3           3.890e-06   3.890e-06    -5.410    -5.410     0.000     (0)  
   Fe(OH)+         3.398e-07   2.102e-07    -6.469    -6.677    -0.209     (0)  
   Fe(CO3)2-2      7.781e-10   1.139e-10    -9.109    -9.943    -0.834     (0)  
   Fe(HS)+         3.791e-11   2.345e-11   -10.421   -10.630    -0.209     (0)  
   Fe(OH)2         4.807e-12   4.807e-12   -11.318   -11.318     0.000     (0)  
   Fe(OH)3-        6.914e-18   4.277e-18   -17.160   -17.369    -0.209     (0)  
   Fe(HS)2         7.705e-20   7.705e-20   -19.113   -19.113     0.000     (0)  
   Fe(OH)4-2       8.605e-23   1.260e-23   -22.065   -22.900    -0.834     (0)  
Fe(3)         2.145e-09
   Fe(OH)CO3       2.124e-09   2.124e-09    -8.673    -8.673     0.000     (0)  
   Fe(OH)2+        1.943e-11   1.202e-11   -10.712   -10.920    -0.209     (0)  
   Fe(OH)3         1.858e-12   1.858e-12   -11.731   -11.731     0.000     (0)  
   Fe(CO3)3-3      8.884e-14   1.178e-15   -13.051   -14.929    -1.878     (0)  
   Fe(OH)4-        2.437e-14   1.508e-14   -13.613   -13.822    -0.209     (0)  
   Fe(OH)+2        2.732e-15   6.034e-16   -14.564   -15.219    -0.656     (0)  
   Fe(H3SiO4)+2    2.347e-16   3.437e-17   -15.629   -16.464    -0.834     (0)  
   Fe(SO4)+        1.085e-18   6.711e-19   -17.965   -18.173    -0.209     (0)  
   FeCl2+          1.070e-18   6.617e-19   -17.971   -18.179    -0.209     (0)  
   Fe(SO4)2-       3.989e-19   2.468e-19   -18.399   -18.608    -0.209     (0)  
   FeCl+2          3.395e-19   2.046e-19   -18.469   -18.689    -0.220     (0)  
   Fe+3            1.346e-19   9.580e-21   -18.871   -20.019    -1.148     (0)  
   FeCl3           2.693e-20   2.693e-20   -19.570   -19.570     0.000     (0)  
   FeCl4-          2.809e-22   1.738e-22   -21.551   -21.760    -0.209     (0)  
   Fe2(OH)2+4      2.393e-26   1.099e-29   -25.621   -28.959    -3.338     (0)  
   FeS2O3+         1.054e-31   6.520e-32   -30.977   -31.186    -0.209     (0)  
   Fe3(OH)4+5      4.532e-34   2.760e-39   -33.344   -38.559    -5.215     (0)  
H(0)          3.005e-12
   H2              1.502e-12   1.502e-12   -11.823   -11.823     0.000     (0)  
K             3.894e-03
   K+              3.894e-03   2.408e-03    -2.410    -2.618    -0.209     (0)  
Mg            3.382e-02
   Mg+2            2.020e-02   4.502e-03    -1.695    -2.347    -0.652     (0)  
   MgCl+           1.051e-02   6.502e-03    -1.978    -2.187    -0.209     (0)  
   Mg(SO4)         3.012e-03   3.012e-03    -2.521    -2.521     0.000     (0)  
   Mg(HCO3)+       9.225e-05   5.706e-05    -4.035    -4.244    -0.209     (0)  
   Mg(CO3)         2.138e-06   2.138e-06    -5.670    -5.670     0.000     (0)  
   Mg(OH)+         1.353e-07   8.368e-08    -6.869    -7.077    -0.209     (0)  
   Mg(H3SiO4)+     2.998e-08   1.854e-08    -7.523    -7.732    -0.209     (0)  
   Mg(S2O3)        2.549e-16   2.549e-16   -15.594   -15.594     0.000     (0)  
   Mg4(OH)4+4      9.963e-19   4.577e-22   -18.002   -21.339    -3.338     (0)  
Na            9.083e-01
   Na+             9.079e-01   5.944e-01    -0.042    -0.226    -0.184     (0)  
   Na(HCO3)        3.864e-04   3.864e-04    -3.413    -3.413     0.000     (0)  
   Na(CO3)-        8.898e-06   5.504e-06    -5.051    -5.259    -0.209     (0)  
   Na(S2O3)-       3.355e-15   2.075e-15   -14.474   -14.683    -0.209     (0)  
O(0)          0.000e+00
   O2              0.000e+00   0.000e+00   -68.532   -68.532     0.000     (0)  
S(-2)         1.062e-10
   HS-             4.124e-11   2.551e-11   -10.385   -10.593    -0.209     (0)  
   Fe(HS)+         3.791e-11   2.345e-11   -10.421   -10.630    -0.209     (0)  
   H2S             2.710e-11   2.710e-11   -10.567   -10.567     0.000     (0)  
   Fe(HS)2         7.705e-20   7.705e-20   -19.113   -19.113     0.000     (0)  
   S-2             1.273e-20   1.864e-21   -19.895   -20.730    -0.834     (0)  
   S2-2            7.096e-23   1.039e-23   -22.149   -22.983    -0.834     (0)  
   S3-2            1.168e-27   1.709e-28   -26.933   -27.767    -0.834     (0)  
   S4-2            1.526e-33   2.234e-34   -32.816   -33.651    -0.834     (0)  
   S5-2            1.202e-39   1.759e-40   -38.920   -39.755    -0.834     (0)  
S(2)          1.919e-14
   S2O3-2          5.853e-15   8.569e-16   -14.233   -15.067    -0.834     (0)  
   Na(S2O3)-       3.355e-15   2.075e-15   -14.474   -14.683    -0.209     (0)  
   Mg(S2O3)        2.549e-16   2.549e-16   -15.594   -15.594     0.000     (0)  
   Ca(S2O3)        1.277e-16   1.277e-16   -15.894   -15.894     0.000     (0)  
   Sr(S2O3)        5.721e-18   5.721e-18   -17.243   -17.243     0.000     (0)  
   H(S2O3)-        7.904e-21   4.889e-21   -20.102   -20.311    -0.209     (0)  
   H2(S2O3)        2.116e-27   2.116e-27   -26.674   -26.674     0.000     (0)  
   FeS2O3+         1.054e-31   6.520e-32   -30.977   -31.186    -0.209     (0)  
S(3)          8.456e-34
   S2O4-2          4.228e-34   6.190e-35   -33.374   -34.208    -0.834     (0)  
   HS2O4-          3.441e-39   2.128e-39   -38.463   -38.672    -0.209     (0)  
   H2S2O4          0.000e+00   0.000e+00   -45.336   -45.336     0.000     (0)  
S(4)          1.884e-14
   SO3-2           1.425e-14   1.765e-15   -13.846   -14.753    -0.907     (0)  
   H(SO3)-         4.588e-15   2.838e-15   -14.338   -14.547    -0.209     (0)  
   SO2             2.311e-20   2.311e-20   -19.636   -19.636     0.000     (0)  
   H2(SO3)         2.235e-20   2.235e-20   -19.651   -19.651     0.000     (0)  
   S2O5-2          1.840e-30   2.694e-31   -29.735   -30.570    -0.834     (0)  
   S4O6-2          4.968e-36   7.273e-37   -35.304   -36.138    -0.834     (0)  
   S3O6-2          0.000e+00   0.000e+00   -43.160   -43.995    -0.834     (0)  
   S5O6-2          0.000e+00   0.000e+00   -56.838   -57.672    -0.834     (0)  
S(6)          4.304e-02
   SO4-2           3.458e-02   3.940e-03    -1.461    -2.405    -0.943     (0)  
   Ca(SO4)         5.356e-03   5.356e-03    -2.271    -2.271     0.000     (0)  
   Mg(SO4)         3.012e-03   3.012e-03    -2.521    -2.521     0.000     (0)  
   Sr(SO4)         4.786e-05   4.786e-05    -4.320    -4.320     0.000     (0)  
   Fe(SO4)         4.559e-05   4.559e-05    -4.341    -4.341     0.000     (0)  
   H(SO4)-         6.753e-08   4.091e-08    -7.171    -7.388    -0.218     (0)  
   Fe(SO4)+        1.085e-18   6.711e-19   -17.965   -18.173    -0.209     (0)  
   Fe(SO4)2-       3.989e-19   2.468e-19   -18.399   -18.608    -0.209     (0)  
   HSO5-           0.000e+00   0.000e+00   -60.641   -60.849    -0.209     (0)  
   S2O8-2          0.000e+00   0.000e+00   -74.539   -75.373    -0.834     (0)  
Si            1.708e-04
   H4(SiO4)        1.703e-04   1.703e-04    -3.769    -3.769     0.000     (0)  
   H3(SiO4)-       4.326e-07   2.264e-07    -6.364    -6.645    -0.281     (0)  
   Mg(H3SiO4)+     2.998e-08   1.854e-08    -7.523    -7.732    -0.209     (0)  
   Ca(H3SiO4)+     2.494e-08   1.542e-08    -7.603    -7.812    -0.209     (0)  
   Si2O2(OH)5-     1.666e-09   8.717e-10    -8.778    -9.060    -0.281     (0)  
   Si2O3(OH)4-2    9.433e-13   1.009e-13   -12.025   -12.996    -0.971     (0)  
   H2(SiO4)-2      8.784e-13   1.043e-13   -12.056   -12.982    -0.925     (0)  
   Fe(H3SiO4)+2    2.347e-16   3.437e-17   -15.629   -16.464    -0.834     (0)  
   Si4O6(OH)6-2    1.393e-16   2.040e-17   -15.856   -16.690    -0.834     (0)  
   Si3O6(OH)3-3    2.705e-18   2.127e-20   -17.568   -19.672    -2.104     (0)  
   Si3O5(OH)5-3    2.078e-18   1.634e-20   -17.682   -19.787    -2.104     (0)  
   Si4O8(OH)4-4    1.625e-23   4.334e-27   -22.789   -26.363    -3.574     (0)  
   Si4O7(OH)6-4    1.149e-23   5.278e-27   -22.940   -26.278    -3.338     (0)  
   Si6O15-6        1.020e-35   0.000e+00   -34.991   -42.501    -7.510     (0)  
Sr            5.734e-04
   Sr+2            4.159e-04   6.089e-05    -3.381    -4.215    -0.834     (0)  
   SrCl+           1.078e-04   6.671e-05    -3.967    -4.176    -0.209     (0)  
   Sr(SO4)         4.786e-05   4.786e-05    -4.320    -4.320     0.000     (0)  
   Sr(HCO3)+       1.722e-06   1.065e-06    -5.764    -5.973    -0.209     (0)  
   Sr(CO3)         1.955e-08   1.955e-08    -7.709    -7.709     0.000     (0)  
   Sr(OH)+         4.491e-11   2.778e-11   -10.348   -10.556    -0.209     (0)  
   Sr(S2O3)        5.721e-18   5.721e-18   -17.243   -17.243     0.000     (0)  

------------------------------Saturation indices-------------------------------

  Phase               SI** log IAP   log K(298 K,   1 atm)

  Acmite           -0.79      0.10    0.89  NaFeSi2O6
  Afwillite       -21.73     27.69   49.42  Ca3Si2O4(OH)6
  Anhydrite        -0.14     -4.58   -4.44  Ca(SO4)
  Antarcticite     -6.58     -2.64    3.94  CaCl2:6H2O
  Antigorite      -72.31    427.58  499.89  Mg48Si34O85(OH)62
  Aragonite        -0.17     -8.48   -8.31  CaCO3
  Arcanite         -5.79     -7.64   -1.85  K2SO4
  Artinite         -6.95      2.86    9.81  Mg2(CO3)(OH)2:3H2O
  Bassanite        -0.67     -4.59   -3.92  CaSO4:0.5H2O
  Bischofite       -7.27     -2.81    4.46  MgCl2:6H2O
  Bloedite         -5.32     -7.67   -2.35  Na2Mg(SO4)2:4H2O
  Brucite          -5.55     11.55   17.10  Mg(OH)2
  Burkeite        -11.70    -12.47   -0.77  Na6(CO3)(SO4)2
  C(cr)            -5.52    -37.67  -32.15  C
  C2SH(alpha)     -15.82     19.72   35.54  Ca2(HSiO4)(OH)
  C3FH6           -35.51     36.82   72.33  Ca3Fe2(OH)12
  C4FH13          -46.62     48.46   95.08  Ca4Fe2(OH)14:6H2O
  Ca(cr)          -93.84      3.01   96.85  Ca
  Ca(SO3)(s)      -10.43    -16.93   -6.50  Ca(SO3)
  Ca2Cl2(OH)2:H2O(s) -17.38      9.15   26.53  Ca2Cl2(OH)2:H2O
  Ca2Fe2O5(s)     -31.57     25.17   56.74  Ca2Fe2O5
  Ca4Cl2(OH)6:13H2O(s) -36.31     32.42   68.73  Ca4Cl2(OH)6:13H2O
  CaCl2:2H2O(cr)  -10.54     -2.59    7.95  CaCl2:2H2O
  CaCl2:4H2O(cr)   -7.97     -2.62    5.35  CaCl2:4H2O
  CaCl2:H2O(s)    -10.42     -2.57    7.85  CaCl2:H2O
  CaCO3:H2O(s)     -0.89     -8.49   -7.60  CaCO3:H2O
  CaFe2O4(s)       -7.80     13.44   21.24  CaFe2O4
  Calcite           0.00     -8.48   -8.48  CaCO3
  CaMg3(CO3)4(s)   -3.62    -34.43  -30.81  CaMg3(CO3)4
  CaO(cr)         -20.96     11.74   32.70  CaO
  Carnallite       -9.95     -5.62    4.33  KMgCl3:6H2O
  Celestite         0.00     -6.62   -6.62  Sr(SO4)
  CH4(g)          -14.11    -55.16  -41.05  CH4
  Chukanovite      -4.13     -1.16    2.97  Fe2(OH)2CO3
  Cl2(g)          -51.54     -5.56   45.98  Cl2
  CO(g)           -14.31    -28.95  -14.64  CO
  CO2(g)           -2.07    -20.22  -18.15  CO2
  Cristobalite     -0.58     -3.74   -3.16  SiO2
  Cronstedtite-Th   0.90     17.01   16.11  Fe4SiO5(OH)4
  CSH0.8           -5.42      5.63   11.05  Ca0.8SiO2.8:1.54H2O
  CSH1.2           -8.99     10.31   19.30  Ca1.2SiO3.2:2.06H2O
  CSH1.6          -13.00     15.00   28.00  Ca1.6SiO3.6:2.58H2O
  Dolomite          0.00    -17.13  -17.13  CaMg(CO3)2
  Epsonite         -2.97     -4.85   -1.88  Mg(SO4):7H2O
  Ettringite-Fe   -31.85     22.70   54.55  Ca6Fe2(SO4)3(OH)12:26H2O
  Fayalite         -4.22     15.33   19.55  Fe2(SiO4)
  Fe(alpha,cr)    -15.08      0.81   15.89  Fe
  Fe(OH)2(cr)      -3.26      9.52   12.78  Fe(OH)2
  Fe0.932O(s)      -4.03      9.48   13.51  Fe0.932O
  Fe3O4(s)         -1.36     11.24   12.60  Fe3O4
  FeO(s)           -3.85      9.54   13.39  FeO
  Ferrihydrite(am)  -3.09      0.83    3.92  Fe(OH)3
  Ferrihydrite(cr)  -0.39      0.83    1.22  Fe(OH)3
  Ferrihydrite(s)  -1.95      0.83    2.78  Fe(OH)3
  Ferrosilite     -26.91      5.80   32.71  FeSiO3
  FeS(am)          -5.06     -8.01   -2.95  FeS
  Foshagite       -30.26     35.70   65.96  Ca4Si3O9(OH)2:0.5H2O
  Gaylussite       -5.88    -15.31   -9.43  CaNa2(CO3)2:5H2O
  Glaserite       -18.17    -25.78   -7.61  Na2K6(SO4)4
  Glauberite       -9.41     -7.44    1.97  Na2Ca(SO4)2
  Goethite          0.67      0.84    0.17  FeOOH
  GR-Cl            -6.49     35.31   41.80  Fe3Fe(OH)8Cl
  GR-CO3           -9.89     45.61   55.50  Fe4Fe2(OH)12CO3:2H2O
  GR-SO4           -8.76     49.54   58.30  Fe4Fe2(OH)12SO4
  Greenalite       -0.72     21.10   21.82  Fe3Si2O5(OH)4
  Greigite        -17.80    -32.83  -15.03  Fe3S4
  Gypsum            0.00     -4.61   -4.61  CaSO4:2H2O
  Gyrolite        -10.12     12.22   22.34  Ca2Si3O7.5(OH):2H2O
  H2(g)            -8.74     -8.74    0.00  H2
  H2O(g)           -1.51    -43.01  -41.50  H2O
  H2S(g)           -9.56    -17.56   -8.00  H2S
  Halite           -2.01     -0.42    1.59  NaCl
  HCl(g)          -13.44     -7.15    6.29  HCl
  Hematite(cr)      2.53      1.70   -0.83  Fe2O3
  Hematite(s)       1.80      1.70   -0.10  Fe2O3
  Hexahydrite      -3.20     -4.84   -1.64  Mg(SO4):6H2O
  Hillebrandite   -17.23     19.72   36.95  Ca2SiO3(OH)2:0.17H2O
  Hydrophilite    -14.33     -2.56   11.77  CaCl2
  Jaffeite        -51.17     62.89  114.06  Ca6(Si2O7)(OH)6
  Jennite         -64.30     83.03  147.33  Ca9Si6O16(OH)10:6H2O
  K(cr)           -49.52     -0.03   49.49  K
  K(OH)(s)        -20.27      4.33   24.60  K(OH)
  K-carbonate     -14.59    -11.56    3.03  K2CO3:1.5H2O
  K-trona         -15.96    -25.06   -9.10  K2NaH(CO3)2:2H2O
  K2CO3(cr)       -16.95    -11.54    5.41  K2CO3
  K2O(s)          -75.43      8.68   84.11  K2O
  Kainite          -7.41     -7.60   -0.19  KMgCl(SO4):3H2O
  Kalicinite       -5.83    -15.89  -10.06  KHCO3
  Lansfordite      -3.68     -8.72   -5.04  Mg(CO3):5H2O
  Lawrencite      -13.69     -4.76    8.93  FeCl2
  Leonhardtite     -3.92     -4.81   -0.89  MgSO4:4H2O
  Leonite          -8.47    -12.45   -3.98  K2Mg(SO4)2:4H2O
  Lepidocrocite    -1.02      0.84    1.86  FeOOH
  Lizardite        -5.89     27.19   33.08  Mg3Si2O5(OH)4
  Mackinawite      -4.82     -8.01   -3.19  FeS
  Maghemite        -1.09      1.70    2.79  Fe2O3
  Magnesite(nat)    0.26     -8.65   -8.91  MgCO3
  Magnesite(syn)   -0.55     -8.65   -8.10  Mg(CO3)
  Magnetite         0.90     11.24   10.34  Fe3O4
  Melanterite      -4.60     -6.88   -2.28  FeSO4:7H2O
  Mercallite      -10.59    -11.99   -1.40  KHSO4
  Mg(cr)          -76.94      2.84   79.78  Mg
  Mg(SO4)(s)      -13.85     -4.75    9.10  Mg(SO4)
  Mg(SO4):H2O(s)   -4.65     -4.77   -0.12  Mg(SO4):H2O
  Mg-oxychlorur   -10.12     15.91   26.03  Mg2Cl(OH)3:4H2O
  Mg5(CO3)4(OH)2:4H2O(s) -12.80    -23.11  -10.31  Mg5(CO3)4(OH)2:4H2O
  MgCl2(s)        -24.76     -2.73   22.03  MgCl2
  MgCl2:2H2O(s)   -15.66     -2.76   12.90  MgCl2:2H2O
  MgCl2:4H2O(s)   -10.23     -2.79    7.44  MgCl2:4H2O
  MgCl2:H2O(s)    -18.96     -2.74   16.22  MgCl2:H2O
  Minnesotaite     -1.36     13.63   14.99  Fe3Si4O10(OH)2
  Mirabilite       -1.77     -3.00   -1.23  Na2SO4:10H2O
  Monosulfate-Fe  -33.89     32.16   66.05  Ca4Fe2(SO4)(OH)12:6H2O
  Na(cr)          -43.52      2.37   45.89  Na
  Na2(CO3)(cr)     -7.88     -6.76    1.12  Na2(CO3)
  Na2CO3:7H2O(s)   -6.40     -6.86   -0.46  Na2CO3:7H2O
  Na2O(cr)        -54.00     13.46   67.46  Na2O
  Nahcolite        -2.75    -13.49  -10.74  Na(HCO3)
  Natron           -6.07     -6.90   -0.83  Na2(CO3):10H2O
  Nesquehonite     -3.59     -8.69   -5.10  Mg(CO3):3H2O
  O2(g)           -65.63    -68.53   -2.90  O2
  Okenite          -4.95      4.23    9.18  CaSi2O5:2H2O
  Pentahydrite     -3.54     -4.82   -1.28  MgSO4:5H2O
  Periclase       -10.01     11.57   21.58  MgO
  Picromerite      -8.15    -12.48   -4.33  K2Mg(SO4)2:6H2O
  Pirssonite       -6.35    -15.26   -8.91  Na2Ca(CO3)2:2H2O
  Polyhalite       -7.84    -21.58  -13.74  K2MgCa2(SO4)4:2H2O
  Portlandite     -11.09     11.72   22.81  Ca(OH)2
  Pyrite            0.00    -16.82  -16.82  FeS2
  Pyrrhotite       -2.79     -8.11   -5.32  Fe0.87S
  Quartz            0.00     -3.74   -3.74  SiO2
  S(cr)            -6.67     -8.81   -2.14  S
  Schwertmannite(cr) -18.28     -9.56    8.72  Fe8O8(OH)6SO4
  Si(cr)          -84.39    -21.20   63.19  Si
  Siderite          0.00    -10.68  -10.68  Fe(CO3)
  SiO2(am)         -1.03     -3.74   -2.71  SiO2
  SO2(g)          -19.73    -28.67   -8.94  SO2
  Sr(cr)          -97.82      0.97   98.79  Sr
  Sr(OH)2(s)      -17.83      9.68   27.51  Sr(OH)2
  Sr(OH)2:8H2O(s) -14.75      9.57   24.32  Sr(OH)2:8H2O
  Sr2SiO4(s)      -27.60     15.65   43.25  Sr2SiO4
  SrCl2(s)        -12.72     -4.60    8.12  SrCl2
  SrCl2:2H2O(s)    -8.10     -4.63    3.47  SrCl2:2H2O
  SrCl2:6H2O(s)    -6.29     -4.68    1.61  SrCl2:6H2O
  SrCl2:H2O(s)     -9.52     -4.61    4.91  SrCl2:H2O
  SrO(cr)         -32.28      9.70   41.98  SrO
  SrS(s)          -22.53     -7.85   14.68  SrS
  SrSiO3(s)        -7.20      5.96   13.16  SrSiO3
  Strontianite     -1.25    -10.52   -9.27  Sr(CO3)
  Sylvite          -3.68     -2.81    0.87  KCl
  Syngenite        -4.86    -12.31   -7.45  K2Ca(SO4)2:6H2O
  Tachyhydrite    -25.57     -8.19   17.38  Mg2CaCl6:12H2O
  Talc             -5.20     19.72   24.92  Mg3Si4O10(OH)2
  Thenardite       -2.50     -2.86   -0.36  Na2SO4
  Thermonatrite    -7.25     -6.77    0.48  Na2(CO3):H2O
  Tobermorite-11A -29.42     36.16   65.58  Ca5Si6O16.5(OH):5H2O
  Tobermorite-14A -26.85     36.09   62.94  Ca5Si6O16.5(OH):10H2O
  Troilite         -4.02     -8.01   -3.99  FeS
  Trona            -8.90    -20.28  -11.38  Na3H(CO3)2:2H2O
  Truscottite     -39.85     37.23   77.08  Ca7Si12O29(OH)4:H2O
  Vaterite         -0.58     -8.48   -7.90  CaCO3
  Xonotlite       -43.38     47.96   91.34  Ca6Si6O17(OH)2

**For a gas, SI = log10(fugacity). Fugacity = pressure * phi / 1 atm.
  For ideal gases, phi = 1.

------------------
End of simulation.
------------------

------------------------------------
Reading input data for simulation 3.
------------------------------------

