   Input file: sit_redox
  Output file: sit_redox.out
Database file: ../database/sit.dat

------------------
Reading data base.
------------------

	SOLUTION_MASTER_SPECIES
	SIT
	SOLUTION_SPECIES
	PHASES
------------------------------------
Reading input data for simulation 1.
------------------------------------

	DATABASE ../database/sit.dat
	SIT
	epsilon
	Al(OH)+2                Cl-             0.09 
	Al(OH)2+                Cl-             0.09 
	Al+3                    Cl-             0.33 
	Ba+2                    Cl-             0.07 
	Cl-                     Ca+2             0.14 
	TITLE  High-salinity high-sulphate PW, Effingen M. 
	SOLUTION 2 High_SO4_high_sal # 1st extract from OFT-13
	    pH 	7.25  # average of extracts #2-5
	    pe 	4.0	# initial estimate
	    units mg/L
	    temp 25.0
		Na    10343     #increased
		K        75.4
		Mg      958.    Dolomite 0.0
		Ca     2980     Gypsum 0.0
		Sr      154.    Celestite 0.0
		Cl    16543.    charge
		S      3500.    as SO4 # aim at SO4/Cl>0.3
		C(4)     10.0   Calcite 0.0
		Si        2.0   Quartz  0.0
	SAVE SOLUTION 2
	END
-----
TITLE
-----

  High-salinity high-sulphate PW, Effingen M. 

-------------------------------------------
Beginning of initial solution calculations.
-------------------------------------------

Initial solution 2.	High_SO4_high_sal 

-----------------------------Solution composition------------------------------

	Elements           Molality       Moles

	C(4)              1.499e-03   1.499e-03  Equilibrium with Calcite
	Ca                3.042e-02   3.042e-02  Equilibrium with Gypsum
	Cl                5.003e-01   5.003e-01  Charge balance
	K                 1.998e-03   1.998e-03
	Mg                2.379e-02   2.379e-02  Equilibrium with Dolomite
	Na                4.660e-01   4.660e-01
	S                 3.774e-02   3.774e-02
	Si                1.862e-04   1.862e-04  Equilibrium with Quartz
	Sr                3.722e-04   3.722e-04  Equilibrium with Celestite

----------------------------Description of solution----------------------------

                                       pH  =   7.250    
                                       pe  =   4.000    
                        Activity of water  =   0.983
                           Ionic strength  =   6.275e-01
                       Mass of water (kg)  =   1.000e+00
                 Total alkalinity (eq/kg)  =   1.432e-03
                       Total CO2 (mol/kg)  =   1.499e-03
                      Temperature (deg C)  =  25.00
                  Electrical balance (eq)  =   4.711e-12
 Percent error, 100*(Cat-|An|)/(Cat+|An|)  =   0.00
                               Iterations  =  25
                         Gamma iterations  =   7
                      Osmotic coefficient  =   0.90921
                                  Total H  = 1.110220e+02
                                  Total O  = 5.566602e+01

----------------------------Distribution of species----------------------------

                                            Log       Log         Log     mole V
   Species          Molality    Activity  Molality  Activity     Gamma   cm3/mol

   OH-             2.562e-07   1.748e-07    -6.591    -6.757    -0.166     (0)  
   H+              7.505e-08   5.623e-08    -7.125    -7.250    -0.125      0.00
   H2O             5.551e+01   9.830e-01     1.744    -0.007     0.000     18.07
C(4)          1.499e-03
   HCO3-           1.134e-03   7.407e-04    -2.945    -3.130    -0.185     (0)  
   Na(HCO3)        1.301e-04   1.301e-04    -3.886    -3.886     0.000     (0)  
   CO2             9.486e-05   9.486e-05    -4.023    -4.023     0.000     (0)  
   Ca(HCO3)+       7.672e-05   5.012e-05    -4.115    -4.300    -0.185     (0)  
   Mg(HCO3)+       4.623e-05   3.020e-05    -4.335    -4.520    -0.185     (0)  
   CaCO3           5.495e-06   5.495e-06    -5.260    -5.260     0.000     (0)  
   Na(CO3)-        5.485e-06   3.584e-06    -5.261    -5.446    -0.185     (0)  
   CO3-2           3.685e-06   6.161e-07    -5.434    -6.210    -0.777     (0)  
   Mg(CO3)         2.188e-06   2.188e-06    -5.660    -5.660     0.000     (0)  
   Sr(HCO3)+       8.709e-07   5.689e-07    -6.060    -6.245    -0.185     (0)  
   Sr(CO3)         2.019e-08   2.019e-08    -7.695    -7.695     0.000     (0)  
   CO              2.538e-32   2.538e-32   -31.595   -31.595     0.000     (0)  
Ca            3.042e-02
   Ca+2            2.515e-02   5.375e-03    -1.600    -2.270    -0.670     (0)  
   Ca(SO4)         5.187e-03   5.187e-03    -2.285    -2.285     0.000     (0)  
   Ca(HCO3)+       7.672e-05   5.012e-05    -4.115    -4.300    -0.185     (0)  
   CaCO3           5.495e-06   5.495e-06    -5.260    -5.260     0.000     (0)  
   Ca(H3SiO4)+     3.805e-08   2.486e-08    -7.420    -7.605    -0.185     (0)  
   Ca(OH)+         2.387e-08   1.559e-08    -7.622    -7.807    -0.185     (0)  
   Ca(S2O3)        0.000e+00   0.000e+00   -70.923   -70.923     0.000     (0)  
Cl            5.003e-01
   Cl-             4.959e-01   3.397e-01    -0.305    -0.469    -0.164     (0)  
   MgCl+           4.329e-03   2.828e-03    -2.364    -2.549    -0.185     (0)  
   SrCl+           4.482e-05   2.928e-05    -4.349    -4.533    -0.185     (0)  
   HCl             3.725e-09   3.725e-09    -8.429    -8.429     0.000     (0)  
   Cl2             0.000e+00   0.000e+00   -40.148   -40.148     0.000     (0)  
   ClO4-           0.000e+00   0.000e+00   -98.589   -98.589     0.000     (0)  
H(0)          5.261e-26
   H2              2.630e-26   2.630e-26   -25.580   -25.580     0.000     (0)  
K             1.998e-03
   K+              1.998e-03   1.300e-03    -2.700    -2.886    -0.187     (0)  
Mg            2.379e-02
   Mg+2            1.643e-02   3.719e-03    -1.784    -2.430    -0.645     (0)  
   MgCl+           4.329e-03   2.828e-03    -2.364    -2.549    -0.185     (0)  
   Mg(SO4)         2.985e-03   2.985e-03    -2.525    -2.525     0.000     (0)  
   Mg(HCO3)+       4.623e-05   3.020e-05    -4.335    -4.520    -0.185     (0)  
   Mg(CO3)         2.188e-06   2.188e-06    -5.660    -5.660     0.000     (0)  
   Mg(OH)+         2.079e-07   1.358e-07    -6.682    -6.867    -0.185     (0)  
   Mg(H3SiO4)+     4.681e-08   3.058e-08    -7.330    -7.515    -0.185     (0)  
   Mg4(OH)4+4      2.883e-18   3.174e-21   -17.540   -20.498    -2.958     (0)  
   Mg(S2O3)        0.000e+00   0.000e+00   -71.163   -71.163     0.000     (0)  
Na            4.660e-01
   Na+             4.659e-01   3.124e-01    -0.332    -0.505    -0.174     (0)  
   Na(HCO3)        1.301e-04   1.301e-04    -3.886    -3.886     0.000     (0)  
   NaH3SiO4        9.545e-06   9.545e-06    -5.020    -5.020     0.000     (0)  
   Na(CO3)-        5.485e-06   3.584e-06    -5.261    -5.446    -0.185     (0)  
   Na(S2O3)-       0.000e+00   0.000e+00   -70.449   -70.449     0.000     (0)  
O(0)          0.000e+00
   O2              0.000e+00   0.000e+00   -40.995   -40.995     0.000     (0)  
S(-2)         0.000e+00
   HS-             0.000e+00   0.000e+00   -65.856   -65.856     0.000     (0)  
   H2S             0.000e+00   0.000e+00   -66.116   -66.116     0.000     (0)  
   S-2             0.000e+00   0.000e+00   -75.706   -75.706     0.000     (0)  
S(2)          0.000e+00
   Na(S2O3)-       0.000e+00   0.000e+00   -70.449   -70.449     0.000     (0)  
   S2O3-2          0.000e+00   0.000e+00   -70.554   -70.554     0.000     (0)  
   Ca(S2O3)        0.000e+00   0.000e+00   -70.923   -70.923     0.000     (0)  
   Mg(S2O3)        0.000e+00   0.000e+00   -71.163   -71.163     0.000     (0)  
   Sr(S2O3)        0.000e+00   0.000e+00   -72.808   -72.808     0.000     (0)  
   H(S2O3)-        0.000e+00   0.000e+00   -76.084   -76.084     0.000     (0)  
   H2(S2O3)        0.000e+00   0.000e+00   -82.734   -82.734     0.000     (0)  
S(3)          0.000e+00
   S2O4-2          0.000e+00   0.000e+00   -75.921   -75.921     0.000     (0)  
   HS2O4-          0.000e+00   0.000e+00   -80.671   -80.671     0.000     (0)  
   H2S2O4          0.000e+00   0.000e+00   -87.621   -87.621     0.000     (0)  
S(4)          6.682e-29
   SO3-2           3.648e-29   3.648e-29   -28.438   -28.438     0.000     (0)  
   H(SO3)-         3.034e-29   3.034e-29   -28.518   -28.518     0.000     (0)  
   H2(SO3)         1.236e-34   1.236e-34   -33.908   -33.908     0.000     (0)  
   S2O5-2          0.000e+00   0.000e+00   -58.519   -58.519     0.000     (0)  
S(6)          3.774e-02
   SO4-2           2.952e-02   4.727e-03    -1.530    -2.325    -0.796     (0)  
   Ca(SO4)         5.187e-03   5.187e-03    -2.285    -2.285     0.000     (0)  
   Mg(SO4)         2.985e-03   2.985e-03    -2.525    -2.525     0.000     (0)  
   Sr(SO4)         4.786e-05   4.786e-05    -4.320    -4.320     0.000     (0)  
   H(SO4)-         3.927e-08   2.538e-08    -7.406    -7.595    -0.190     (0)  
   SO2             1.257e-34   1.257e-34   -33.901   -33.901     0.000     (0)  
   HSO5-           0.000e+00   0.000e+00   -47.293   -47.293     0.000     (0)  
   S2O8-2          0.000e+00   0.000e+00   -62.031   -62.031     0.000     (0)  
   S3O6-2          0.000e+00   0.000e+00   -99.972   -99.972     0.000     (0)  
   S2-2            0.000e+00   0.000e+00  -119.741  -119.741     0.000     (0)  
   S4O6-2          0.000e+00   0.000e+00  -133.907  -133.907     0.000     (0)  
   S3-2            0.000e+00   0.000e+00  -166.317  -166.317     0.000     (0)  
   S5O6-2          0.000e+00   0.000e+00  -197.243  -197.243     0.000     (0)  
   S4-2            0.000e+00   0.000e+00  -213.992  -213.992     0.000     (0)  
   S5-2            0.000e+00   0.000e+00  -261.888  -261.888     0.000     (0)  
Si            1.862e-04
   H4(SiO4)        1.758e-04   1.758e-04    -3.755    -3.755     0.000     (0)  
   NaH3SiO4        9.545e-06   9.545e-06    -5.020    -5.020     0.000     (0)  
   H3(SiO4)-       7.537e-07   4.519e-07    -6.123    -6.345    -0.222     (0)  
   Mg(H3SiO4)+     4.681e-08   3.058e-08    -7.330    -7.515    -0.185     (0)  
   Ca(H3SiO4)+     3.805e-08   2.486e-08    -7.420    -7.605    -0.185     (0)  
   Si2O2(OH)5-     7.409e-09   4.442e-09    -8.130    -8.352    -0.222     (0)  
   Si2O3(OH)4-2    6.412e-12   9.945e-13   -11.193   -12.002    -0.809     (0)  
   H2(SiO4)-2      2.461e-12   4.028e-13   -11.609   -12.395    -0.786     (0)  
   Si3O5(OH)5-3    6.033e-16   1.000e-17   -15.219   -17.000    -1.780     (0)  
   Si3O6(OH)3-3    4.876e-17   8.084e-19   -16.312   -18.092    -1.780     (0)  
   Si4O7(OH)5-3    1.098e-17   1.820e-19   -16.959   -18.740    -1.780     (0)  
   Si4O8(OH)4-4    4.659e-20   5.130e-23   -19.332   -22.290    -2.958     (0)  
Sr            3.722e-04
   Sr+2            2.786e-04   5.075e-05    -3.555    -4.295    -0.740     (0)  
   Sr(SO4)         4.786e-05   4.786e-05    -4.320    -4.320     0.000     (0)  
   SrCl+           4.482e-05   2.928e-05    -4.349    -4.533    -0.185     (0)  
   Sr(HCO3)+       8.709e-07   5.689e-07    -6.060    -6.245    -0.185     (0)  
   Sr(CO3)         2.019e-08   2.019e-08    -7.695    -7.695     0.000     (0)  
   Sr(OH)+         6.964e-11   4.550e-11   -10.157   -10.342    -0.185     (0)  
   Sr(S2O3)        0.000e+00   0.000e+00   -72.808   -72.808     0.000     (0)  

------------------------------Saturation indices-------------------------------

	Phase               SI   log IAP   log K(298 K,   1 atm)

	Afwillite       -20.25     29.17   49.42  Ca3Si2O4(OH)6
	Anhydrite        -0.16     -4.60   -4.44  Ca(SO4)
	Antarcticite     -7.19     -3.25    3.94  CaCl2:6H2O
	Aragonite        -0.17     -8.48   -8.31  CaCO3
	Arcanite         -6.25     -8.10   -1.85  K2SO4
	Artinite         -6.42      3.39    9.81  Mg2(CO3)(OH)2:3H2O
	Bassanite        -0.68     -4.60   -3.92  CaSO4:0.5H2O
	Bischofite       -7.87     -3.41    4.46  MgCl2:6H2O
	Bloedite         -5.77     -8.12   -2.35  Na2Mg(SO4)2:4H2O
	Brucite          -5.04     12.06   17.10  Mg(OH)2
	Burkeite        -13.12    -13.89   -0.77  Na6(CO3)(SO4)2
	C(cr)           -33.54    -65.69  -32.15  C
	C2SH(alfa)      -14.84     20.70   35.54  Ca2(HSiO4)(OH)
	Ca(s)          -107.12    -10.27   96.85  Ca
	Ca(SO3)(s)      -24.21    -30.71   -6.50  Ca(SO3)
	Ca2Cl2(OH)2:H2O(s) -17.53      9.00   26.53  Ca2Cl2(OH)2:H2O
	Ca4Cl2(OH)6:13H2O(s) -35.39     33.34   68.73  Ca4Cl2(OH)6:13H2O
	CaCl2:2H2O(cr)  -11.17     -3.22    7.95  CaCl2:2H2O
	CaCl2:4H2O(cr)   -8.59     -3.24    5.35  CaCl2:4H2O
	CaCl2:H2O(s)    -11.06     -3.21    7.85  CaCl2:H2O
	CaCO3:H2O(s)     -0.89     -8.49   -7.60  CaCO3:H2O
	Calcite          -0.00     -8.48   -8.48  CaCO3
	CaMg3(CO3)4(s)   -3.59    -34.40  -30.81  CaMg3(CO3)4
	CaO(cr)         -20.48     12.22   32.70  CaO
	Carnallite      -11.10     -6.77    4.33  KMgCl3:6H2O
	Celestite         0.00     -6.62   -6.62  Sr(SO4)
	CH4(g)          -69.64   -110.69  -41.05  CH4
	Chrysotile       -4.48     28.69   33.17  Mg3Si2O5(OH)4
	Cl2(g)          -38.92      7.06   45.98  Cl2
	CO(g)           -28.56    -43.20  -14.64  CO
	CO2(g)           -2.55    -20.70  -18.15  CO2
	Cristobalite     -0.58     -3.74   -3.16  SiO2
	CSH0.8           -5.02      6.03   11.05  Ca0.8SiO2.8:1.54H2O
	CSH1.2           -8.39     10.91   19.30  Ca1.2SiO3.2:2.06H2O
	CSH1.6          -12.20     15.80   28.00  Ca1.6SiO3.6:2.58H2O
	Dolomite         -0.00    -17.12  -17.12  CaMg(CO3)2
	Epsonite         -2.93     -4.81   -1.88  Mg(SO4):7H2O
	Foshagite       -28.30     37.66   65.96  Ca4Si3O9(OH)2:0.5H2O
	Gaylussite       -6.31    -15.74   -9.43  CaNa2(CO3)2:5H2O
	Glaserite       -20.02    -27.63   -7.61  Na2K6(SO4)4
	Glauberite       -9.90     -7.93    1.97  Na2Ca(SO4)2
	Gypsum            0.00     -4.61   -4.61  CaSO4:2H2O
	Gyrolite         -9.13     13.21   22.34  Ca2Si3O7.5(OH):2H2O
	H2(g)           -22.50    -22.50    0.00  H2
	H2O(g)           -1.51    -43.00  -41.49  H2O
	H2S(g)          -65.11    -73.11   -8.00  H2S
	Halite           -2.56     -0.97    1.59  NaCl
	HCl(g)          -14.01     -7.72    6.29  HCl
	Hexahydrite      -3.16     -4.80   -1.64  Mg(SO4):6H2O
	Hillebrandite   -16.15     20.70   36.85  Ca2SiO3(OH)2:0.17H2O
	Hydrophilite    -14.98     -3.21   11.77  CaCl2
	Jaffeite        -48.22     65.84  114.06  Ca6(Si2O7)(OH)6
	Jennite         -59.85     87.48  147.33  Ca9Si6O16(OH)10:6(H2O)
	K(cr)           -56.38     -6.89   49.49  K
	K(OH)(s)        -20.24      4.36   24.60  K(OH)
	K-carbonate     -15.02    -11.99    3.03  K2CO3:1.5H2O
	K-trona         -16.86    -25.96   -9.10  K2NaH(CO3)2:2H2O
	K2CO3(cr)       -17.39    -11.98    5.41  K2CO3
	K2O(s)          -75.39      8.72   84.11  K2O
	Kainite          -7.94     -8.13   -0.19  KMgCl(SO4):3H2O
	Kalicinite       -6.29    -16.35  -10.06  KHCO3
	Lansfordite      -3.64     -8.68   -5.04  Mg(CO3):5H2O
	Leonhardtite     -3.89     -4.78   -0.89  MgSO4:4H2O
	Leonite          -8.90    -12.88   -3.98  K2Mg(SO4)2:4H2O
	Magnesite(nat)    0.27     -8.64   -8.91  MgCO3
	Magnesite(syn)   -0.54     -8.64   -8.10  Mg(CO3)
	Mercallite      -11.06    -12.46   -1.40  KHSO4
	Mg(cr)          -90.21    -10.43   79.78  Mg
	Mg(SO4)(s)      -13.86     -4.76    9.10  Mg(SO4)
	Mg(SO4):H2O(s)   -4.64     -4.76   -0.12  Mg(SO4):H2O
	Mg-oxychlorur    -9.66     16.37   26.03  Mg2Cl(OH)3:4H2O
	Mg5(CO3)4(OH)2:4H2O(s) -12.22    -22.53  -10.31  Mg5(CO3)4(OH)2:4H2O
	MgCl2(s)        -25.40     -3.37   22.03  MgCl2
	MgCl2:2H2O(s)   -16.28     -3.38   12.90  MgCl2:2H2O
	MgCl2:4H2O(s)   -10.84     -3.40    7.44  MgCl2:4H2O
	MgCl2:H2O(s)    -19.59     -3.37   16.22  MgCl2:H2O
	Mirabilite       -2.18     -3.41   -1.23  Na2SO4:10H2O
	Na(cr)          -50.40     -4.51   45.89  Na
	Na2(CO3)(cr)     -8.34     -7.22    1.12  Na2(CO3)
	Na2CO3:7H2O(s)   -6.81     -7.27   -0.46  Na2CO3:7H2O
	Na2O(cr)        -53.98     13.48   67.46  Na2O
	Nahcolite        -3.23    -13.97  -10.74  Na(HCO3)
	Natron           -6.47     -7.30   -0.83  Na2(CO3):10H2O
	Nesquehonite     -3.56     -8.66   -5.10  Mg(CO3):3H2O
	O2(g)           -38.09    -40.99   -2.90  O2
	Okenite          -4.45      4.73    9.18  CaSi2O5:2H2O
	Pentahydrite     -3.51     -4.79   -1.28  MgSO4:5H2O
	Periclase        -9.52     12.06   21.58  MgO
	Picromerite      -8.57    -12.90   -4.33  K2Mg(SO4)2:6H2O
	Pirssonite       -6.81    -15.72   -8.91  Na2Ca(CO3)2:2H2O
	Polyhalite       -8.32    -22.06  -13.74  K2MgCa2(SO4)4:2H2O
	Portlandite     -10.59     12.22   22.81  Ca(OH)2
	Quartz           -0.00     -3.74   -3.74  SiO2
	S(cr)           -48.46    -84.30  -35.84  S
	Si(cr)         -111.92    -48.73   63.19  Si
	SiO2(am)         -1.03     -3.74   -2.71  SiO2
	SO2(g)          -33.99    -39.31   -5.32  SO2
	Sr(cr)         -111.08    -12.29   98.79  Sr
	Sr(OH)2(s)      -17.32     10.19   27.51  Sr(OH)2
	Sr(OH)2:8H2O(s) -14.19     10.13   24.32  Sr(OH)2:8H2O
	Sr2SiO4(s)      -26.59     16.66   43.25  Sr2SiO4
	SrCl2(s)        -13.35     -5.23    8.12  SrCl2
	SrCl2:2H2O(s)    -8.72     -5.25    3.47  SrCl2:2H2O
	SrCl2:6H2O(s)    -6.89     -5.28    1.61  SrCl2:6H2O
	SrCl2:H2O(s)    -10.15     -5.24    4.91  SrCl2:H2O
	SrO(cr)         -31.78     10.20   41.98  SrO
	SrS(s)          -77.58    -62.90   14.68  SrS
	SrSiO3(s)        -6.70      6.46   13.16  SrSiO3
	Strontianite     -1.23    -10.50   -9.27  Sr(CO3)
	Sylvite          -4.23     -3.36    0.87  KCl
	Syngenite        -5.29    -12.74   -7.45  K2Ca(SO4)2:6H2O
	Tachyhydrite    -27.41    -10.03   17.38  Mg2CaCl6:12H2O
	Thermonatrite    -7.71     -7.23    0.48  Na2(CO3):H2O
	Thernardite      -2.98     -3.34   -0.36  Na2SO4
	Tobermorite-11A -26.95     38.63   65.58  Ca5Si6O16.5(OH):5H2O
	Tobermorite-14A -24.34     38.60   62.94  Ca5Si6O16.5(OH):10H2O
	Trona            -9.82    -21.20  -11.38  Na3H(CO3)2:2H2O
	Truscottite     -36.42     40.66   77.08  Ca7Si12O29(OH)4:H2O
	Vaterite         -0.58     -8.48   -7.90  CaCO3
	Xonotlite       -40.45     50.89   91.34  Ca6Si6O17(OH)2


------------------
End of simulation.
------------------

------------------------------------
Reading input data for simulation 2.
------------------------------------

	USE SOLUTION 2
	EQUILIBRIUM_PHASES
		Dolomite       0.0 1.0
		Calcite        0.0 1.0
		Celestite      0.0 1.0
		Quartz         0.0 1.0
		Gypsum         0.0 0.0
		Siderite       0.0 1.0
		Pyrite         0.0 1.0
	REACTION
		H2O	-1.0
		27 moles in 9 steps
	END
-----------------------------------------
Beginning of batch-reaction calculations.
-----------------------------------------

Reaction step 1.

Using solution 2.	High_SO4_high_sal 
Using pure phase assemblage 1.	
Using reaction 1.	

Reaction 1.	

	  3.000e+00 moles of the following reaction have been added:

	                 Relative
	Reactant            moles

	H2O                 -1.00000

	                 Relative
	Element             moles
	H                   -2.00000
	O                   -1.00000

-------------------------------Phase assemblage--------------------------------

                                                      Moles in assemblage
Phase               SI  log IAP  log K(T, P)   Initial       Final       Delta

Calcite           0.00    -8.48     -8.48    1.000e+00   9.988e-01  -1.172e-03
Celestite         0.00    -6.62     -6.62    1.000e+00   1.000e+00   9.109e-06
Dolomite          0.00   -17.12    -17.12    1.000e+00   1.001e+00   6.763e-04
Gypsum            0.00    -4.61     -4.61    0.000e+00   1.585e-03   1.585e-03
Pyrite            0.00   -15.79    -15.79    1.000e+00   1.000e+00  -1.199e-10
Quartz            0.00    -3.74     -3.74    1.000e+00   1.000e+00   1.044e-05
Siderite          0.00   -10.80    -10.80    1.000e+00   9.998e-01  -1.833e-04

-----------------------------Solution composition------------------------------

	Elements           Molality       Moles

	C                 1.588e-03   1.502e-03
	Ca                3.101e-02   2.933e-02
	Cl                5.289e-01   5.003e-01
	Fe                1.938e-04   1.833e-04
	K                 2.112e-03   1.998e-03
	Mg                2.444e-02   2.312e-02
	Na                4.927e-01   4.660e-01
	S                 3.821e-02   3.615e-02
	Si                1.858e-04   1.758e-04
	Sr                3.838e-04   3.631e-04

----------------------------Description of solution----------------------------

                                       pH  =   7.227      Charge balance
                                       pe  =  -2.975      Adjusted to redox equilibrium
                        Activity of water  =   0.982
                           Ionic strength  =   6.581e-01
                       Mass of water (kg)  =   9.459e-01
                 Total alkalinity (eq/kg)  =   1.520e-03
                       Total CO2 (mol/kg)  =   1.588e-03
                      Temperature (deg C)  =  25.00
                  Electrical balance (eq)  =   3.988e-11
 Percent error, 100*(Cat-|An|)/(Cat+|An|)  =   0.00
                               Iterations  =  27
                         Gamma iterations  =   6
                      Osmotic coefficient  =   0.91048
                                  Total H  = 1.050156e+02
                                  Total O  = 5.265646e+01

----------------------------Distribution of species----------------------------

                                            Log       Log         Log     mole V
   Species          Molality    Activity  Molality  Activity     Gamma   cm3/mol

   OH-             2.435e-07   1.657e-07    -6.614    -6.781    -0.167     (0)  
   H+              7.883e-08   5.925e-08    -7.103    -7.227    -0.124      0.00
   H2O             5.551e+01   9.820e-01     1.744    -0.008     0.000     18.07
C(-4)         3.339e-17
   CH4             3.339e-17   3.339e-17   -16.476   -16.476     0.000     (0)  
C(4)          1.588e-03
   HCO3-           1.184e-03   7.702e-04    -2.926    -3.113    -0.187     (0)  
   Na(HCO3)        1.426e-04   1.426e-04    -3.846    -3.846     0.000     (0)  
   CO2             1.040e-04   1.040e-04    -3.983    -3.983     0.000     (0)  
   Ca(HCO3)+       8.121e-05   5.281e-05    -4.090    -4.277    -0.187     (0)  
   Mg(HCO3)+       4.893e-05   3.182e-05    -4.310    -4.497    -0.187     (0)  
   Fe(CO3)         7.762e-06   7.762e-06    -5.110    -5.110     0.000     (0)  
   Na(CO3)-        5.734e-06   3.729e-06    -5.242    -5.428    -0.187     (0)  
   CaCO3           5.495e-06   5.495e-06    -5.260    -5.260     0.000     (0)  
   CO3-2           3.723e-06   6.080e-07    -5.429    -6.216    -0.787     (0)  
   Mg(CO3)         2.188e-06   2.188e-06    -5.660    -5.660     0.000     (0)  
   Sr(HCO3)+       9.201e-07   5.983e-07    -6.036    -6.223    -0.187     (0)  
   FeHCO3+         8.504e-07   5.530e-07    -6.070    -6.257    -0.187     (0)  
   FeCO3OH-        3.770e-08   2.451e-08    -7.424    -7.611    -0.187     (0)  
   Sr(CO3)         2.015e-08   2.015e-08    -7.696    -7.696     0.000     (0)  
   FeCO3OH         1.565e-09   1.565e-09    -8.805    -8.805     0.000     (0)  
   Fe(CO3)2-2      1.519e-09   2.716e-10    -8.818    -9.566    -0.748     (0)  
   Fe(CO3)3-3      5.071e-14   1.054e-15   -13.295   -14.977    -1.682     (0)  
   CO              2.756e-18   2.756e-18   -17.560   -17.560     0.000     (0)  
Ca            3.101e-02
   Ca+2            2.572e-02   5.446e-03    -1.590    -2.264    -0.674     (0)  
   Ca(SO4)         5.197e-03   5.197e-03    -2.284    -2.284     0.000     (0)  
   Ca(HCO3)+       8.121e-05   5.281e-05    -4.090    -4.277    -0.187     (0)  
   CaCO3           5.495e-06   5.495e-06    -5.260    -5.260     0.000     (0)  
   Ca(H3SiO4)+     3.669e-08   2.386e-08    -7.435    -7.622    -0.187     (0)  
   Ca(OH)+         2.304e-08   1.498e-08    -7.638    -7.825    -0.187     (0)  
   Ca(S2O3)        1.262e-15   1.262e-15   -14.899   -14.899     0.000     (0)  
Cl            5.289e-01
   Cl-             5.242e-01   3.582e-01    -0.281    -0.446    -0.165     (0)  
   MgCl+           4.646e-03   3.021e-03    -2.333    -2.520    -0.187     (0)  
   SrCl+           4.801e-05   3.122e-05    -4.319    -4.506    -0.187     (0)  
   FeCl+           1.982e-05   1.289e-05    -4.703    -4.890    -0.187     (0)  
   HCl             4.138e-09   4.138e-09    -8.383    -8.383     0.000     (0)  
   FeCl+2          1.358e-19   2.428e-20   -18.867   -19.615    -0.748     (0)  
   FeCl2+          6.704e-20   4.360e-20   -19.174   -19.361    -0.187     (0)  
   FeCl3           1.673e-21   1.673e-21   -20.776   -20.776     0.000     (0)  
   FeCl4-          1.108e-23   7.206e-24   -22.955   -23.142    -0.187     (0)  
   Cl2             0.000e+00   0.000e+00   -54.052   -54.052     0.000     (0)  
   ClO4-           0.000e+00   0.000e+00  -154.548  -154.548     0.000     (0)  
Fe(2)         1.938e-04
   Fe+2            1.458e-04   2.607e-05    -3.836    -4.584    -0.748     (0)  
   FeCl+           1.982e-05   1.289e-05    -4.703    -4.890    -0.187     (0)  
   Fe(SO4)         1.931e-05   1.931e-05    -4.714    -4.714     0.000     (0)  
   Fe(CO3)         7.762e-06   7.762e-06    -5.110    -5.110     0.000     (0)  
   FeHCO3+         8.504e-07   5.530e-07    -6.070    -6.257    -0.187     (0)  
   Fe(OH)+         2.101e-07   1.366e-07    -6.678    -6.865    -0.187     (0)  
   FeCO3OH-        3.770e-08   2.451e-08    -7.424    -7.611    -0.187     (0)  
   Fe(CO3)2-2      1.519e-09   2.716e-10    -8.818    -9.566    -0.748     (0)  
   Fe(HS)+         1.223e-10   7.955e-11    -9.912   -10.099    -0.187     (0)  
   Fe(OH)2         1.798e-11   1.798e-11   -10.745   -10.745     0.000     (0)  
   Fe(HSO4)+       1.304e-11   8.481e-12   -10.885   -11.072    -0.187     (0)  
   Fe(OH)3-        2.297e-15   1.494e-15   -14.639   -14.826    -0.187     (0)  
   Fe(HS)2         1.429e-18   1.429e-18   -17.845   -17.845     0.000     (0)  
   Fe(OH)4-2       1.100e-21   1.967e-22   -20.959   -21.706    -0.748     (0)  
Fe(3)         1.571e-09
   FeCO3OH         1.565e-09   1.565e-09    -8.805    -8.805     0.000     (0)  
   Fe(OH)3         3.384e-12   3.384e-12   -11.471   -11.471     0.000     (0)  
   Fe(OH)2+        2.437e-12   1.585e-12   -11.613   -11.800    -0.187     (0)  
   Fe(OH)4-        7.866e-14   5.115e-14   -13.104   -13.291    -0.187     (0)  
   Fe(CO3)3-3      5.071e-14   1.054e-15   -13.295   -14.977    -1.682     (0)  
   Fe(OH)+2        1.290e-15   2.888e-16   -14.889   -15.539    -0.650     (0)  
   Fe(H3SiO4)+2    1.024e-16   1.831e-17   -15.990   -16.737    -0.748     (0)  
   Fe(SO4)+        2.442e-19   1.588e-19   -18.612   -18.799    -0.187     (0)  
   FeCl+2          1.358e-19   2.428e-20   -18.867   -19.615    -0.748     (0)  
   Fe+3            1.298e-19   2.699e-21   -18.887   -20.569    -1.682     (0)  
   FeCl2+          6.704e-20   4.360e-20   -19.174   -19.361    -0.187     (0)  
   Fe(SO4)2-       2.278e-20   1.481e-20   -19.643   -19.829    -0.187     (0)  
   FeCl3           1.673e-21   1.673e-21   -20.776   -20.776     0.000     (0)  
   FeCl4-          1.108e-23   7.206e-24   -22.955   -23.142    -0.187     (0)  
   FeHSO4+2        2.206e-26   2.206e-26   -25.656   -25.656     0.000     (0)  
   Fe2(OH)2+4      2.245e-30   2.245e-30   -29.649   -29.649     0.000     (0)  
   FeS2O3+         6.252e-32   6.252e-32   -31.204   -31.204     0.000     (0)  
   Fe3(OH)4+5      7.435e-40   7.435e-40   -39.129   -39.129     0.000     (0)  
H(0)          5.202e-12
   H2              2.601e-12   2.601e-12   -11.585   -11.585     0.000     (0)  
K             2.112e-03
   K+              2.112e-03   1.368e-03    -2.675    -2.864    -0.189     (0)  
Mg            2.444e-02
   Mg+2            1.675e-02   3.768e-03    -1.776    -2.424    -0.648     (0)  
   MgCl+           4.646e-03   3.021e-03    -2.333    -2.520    -0.187     (0)  
   Mg(SO4)         2.991e-03   2.991e-03    -2.524    -2.524     0.000     (0)  
   Mg(HCO3)+       4.893e-05   3.182e-05    -4.310    -4.497    -0.187     (0)  
   Mg(CO3)         2.188e-06   2.188e-06    -5.660    -5.660     0.000     (0)  
   Mg(OH)+         2.006e-07   1.305e-07    -6.698    -6.885    -0.187     (0)  
   Mg(H3SiO4)+     4.513e-08   2.935e-08    -7.345    -7.532    -0.187     (0)  
   Mg(S2O3)        7.259e-16   7.259e-16   -15.139   -15.139     0.000     (0)  
   Mg4(OH)4+4      2.644e-18   2.704e-21   -17.578   -20.568    -2.990     (0)  
Na            4.927e-01
   Na+             4.925e-01   3.293e-01    -0.308    -0.482    -0.175     (0)  
   Na(HCO3)        1.426e-04   1.426e-04    -3.846    -3.846     0.000     (0)  
   NaH3SiO4        9.532e-06   9.532e-06    -5.021    -5.021     0.000     (0)  
   Na(CO3)-        5.734e-06   3.729e-06    -5.242    -5.428    -0.187     (0)  
   Na(S2O3)-       6.017e-15   3.912e-15   -14.221   -14.408    -0.187     (0)  
O(0)          0.000e+00
   O2              0.000e+00   0.000e+00   -68.986   -68.986     0.000     (0)  
S(-2)         4.176e-10
   HS-             2.145e-10   1.395e-10    -9.669    -9.855    -0.187     (0)  
   Fe(HS)+         1.223e-10   7.955e-11    -9.912   -10.099    -0.187     (0)  
   H2S             8.077e-11   8.077e-11   -10.093   -10.093     0.000     (0)  
   Fe(HS)2         1.429e-18   1.429e-18   -17.845   -17.845     0.000     (0)  
   S-2             1.046e-19   1.870e-20   -18.981   -19.728    -0.748     (0)  
S(2)          4.866e-14
   S2O3-2          1.631e-14   2.916e-15   -13.788   -14.535    -0.748     (0)  
   Na(S2O3)-       6.017e-15   3.912e-15   -14.221   -14.408    -0.187     (0)  
   Ca(S2O3)        1.262e-15   1.262e-15   -14.899   -14.899     0.000     (0)  
   Mg(S2O3)        7.259e-16   7.259e-16   -15.139   -15.139     0.000     (0)  
   Sr(S2O3)        1.641e-17   1.641e-17   -16.785   -16.785     0.000     (0)  
   H(S2O3)-        1.394e-20   9.068e-21   -19.856   -20.042    -0.187     (0)  
   H2(S2O3)        2.139e-27   2.139e-27   -26.670   -26.670     0.000     (0)  
   FeS2O3+         6.252e-32   6.252e-32   -31.204   -31.204     0.000     (0)  
S(3)          2.528e-34
   S2O4-2          1.264e-34   1.264e-34   -33.898   -33.898     0.000     (0)  
   HS2O4-          2.369e-39   2.369e-39   -38.626   -38.626     0.000     (0)  
   H2S2O4          0.000e+00   0.000e+00   -45.553   -45.553     0.000     (0)  
S(4)          2.668e-14
   SO3-2           2.186e-14   3.570e-15   -13.660   -14.447    -0.787     (0)  
   H(SO3)-         4.812e-15   3.129e-15   -14.318   -14.505    -0.187     (0)  
   H2(SO3)         1.343e-20   1.343e-20   -19.872   -19.872     0.000     (0)  
   S2O5-2          3.227e-31   3.227e-31   -30.491   -30.491     0.000     (0)  
S(6)          3.821e-02
   SO4-2           2.996e-02   4.674e-03    -1.523    -2.330    -0.807     (0)  
   Ca(SO4)         5.197e-03   5.197e-03    -2.284    -2.284     0.000     (0)  
   Mg(SO4)         2.991e-03   2.991e-03    -2.524    -2.524     0.000     (0)  
   Sr(SO4)         4.786e-05   4.786e-05    -4.320    -4.320     0.000     (0)  
   Fe(SO4)         1.931e-05   1.931e-05    -4.714    -4.714     0.000     (0)  
   H(SO4)-         4.114e-08   2.645e-08    -7.386    -7.578    -0.192     (0)  
   Fe(HSO4)+       1.304e-11   8.481e-12   -10.885   -11.072    -0.187     (0)  
   Fe(SO4)+        2.442e-19   1.588e-19   -18.612   -18.799    -0.187     (0)  
   Fe(SO4)2-       2.278e-20   1.481e-20   -19.643   -19.829    -0.187     (0)  
   SO2             1.368e-20   1.368e-20   -19.864   -19.864     0.000     (0)  
   S2-2            1.027e-21   1.836e-22   -20.988   -21.736    -0.748     (0)  
   FeHSO4+2        2.206e-26   2.206e-26   -25.656   -25.656     0.000     (0)  
   S3-2            5.200e-27   5.200e-27   -26.284   -26.284     0.000     (0)  
   S4-2            1.170e-32   1.170e-32   -31.932   -31.932     0.000     (0)  
   S4O6-2          1.513e-36   1.513e-36   -35.820   -35.820     0.000     (0)  
   S5-2            1.586e-38   1.586e-38   -37.800   -37.800     0.000     (0)  
   S3O6-2          0.000e+00   0.000e+00   -43.912   -43.912     0.000     (0)  
   S5O6-2          0.000e+00   0.000e+00   -57.128   -57.128     0.000     (0)  
   HSO5-           0.000e+00   0.000e+00   -61.271   -61.271     0.000     (0)  
   S2O8-2          0.000e+00   0.000e+00   -75.990   -75.990     0.000     (0)  
Si            1.858e-04
   H4(SiO4)        1.755e-04   1.755e-04    -3.756    -3.756     0.000     (0)  
   NaH3SiO4        9.532e-06   9.532e-06    -5.021    -5.021     0.000     (0)  
   H3(SiO4)-       7.208e-07   4.281e-07    -6.142    -6.368    -0.226     (0)  
   Mg(H3SiO4)+     4.513e-08   2.935e-08    -7.345    -7.532    -0.187     (0)  
   Ca(H3SiO4)+     3.669e-08   2.386e-08    -7.435    -7.622    -0.187     (0)  
   Si2O2(OH)5-     7.079e-09   4.204e-09    -8.150    -8.376    -0.226     (0)  
   Si2O3(OH)4-2    5.921e-12   8.932e-13   -11.228   -12.049    -0.821     (0)  
   H2(SiO4)-2      2.268e-12   3.621e-13   -11.644   -12.441    -0.797     (0)  
   Si3O5(OH)5-3    5.440e-16   8.518e-18   -15.264   -17.070    -1.805     (0)  
   Fe(H3SiO4)+2    1.024e-16   1.831e-17   -15.990   -16.737    -0.748     (0)  
   Si3O6(OH)3-3    4.400e-17   6.890e-19   -16.357   -18.162    -1.805     (0)  
   Si4O7(OH)5-3    9.899e-18   1.550e-19   -17.004   -18.810    -1.805     (0)  
   Si4O8(OH)4-4    4.055e-20   4.146e-23   -19.392   -22.382    -2.990     (0)  
Sr            3.838e-04
   Sr+2            2.870e-04   5.132e-05    -3.542    -4.290    -0.748     (0)  
   SrCl+           4.801e-05   3.122e-05    -4.319    -4.506    -0.187     (0)  
   Sr(SO4)         4.786e-05   4.786e-05    -4.320    -4.320     0.000     (0)  
   Sr(HCO3)+       9.201e-07   5.983e-07    -6.036    -6.223    -0.187     (0)  
   Sr(CO3)         2.015e-08   2.015e-08    -7.696    -7.696     0.000     (0)  
   Sr(OH)+         6.709e-11   4.362e-11   -10.173   -10.360    -0.187     (0)  
   Sr(S2O3)        1.641e-17   1.641e-17   -16.785   -16.785     0.000     (0)  

------------------------------Saturation indices-------------------------------

	Phase               SI   log IAP   log K(298 K,   1 atm)

	Afwillite       -20.38     29.04   49.42  Ca3Si2O4(OH)6
	Anhydrite        -0.15     -4.59   -4.44  Ca(SO4)
	Antarcticite     -7.14     -3.20    3.94  CaCl2:6H2O
	Aragonite        -0.17     -8.48   -8.31  CaCO3
	Arcanite         -6.21     -8.06   -1.85  K2SO4
	Artinite         -6.46      3.35    9.81  Mg2(CO3)(OH)2:3H2O
	Bassanite        -0.68     -4.60   -3.92  CaSO4:0.5H2O
	Bischofite       -7.82     -3.36    4.46  MgCl2:6H2O
	Bloedite         -5.73     -8.08   -2.35  Na2Mg(SO4)2:4H2O
	Brucite          -5.09     12.01   17.10  Mg(OH)2
	Burkeite        -13.00    -13.77   -0.77  Na6(CO3)(SO4)2
	C(cr)            -5.51    -37.66  -32.15  C
	C2SH(alfa)      -14.92     20.62   35.54  Ca2(HSiO4)(OH)
	C3FH6           -31.68     38.70   70.38  Ca3Fe2(OH)12
	C4FH13          -42.88     50.83   93.71  Ca4Fe2(OH)14:6H2O
	Ca(s)           -93.16      3.69   96.85  Ca
	Ca(SO3)(s)      -10.21    -16.71   -6.50  Ca(SO3)
	Ca2Cl2(OH)2:H2O(s) -17.52      9.01   26.53  Ca2Cl2(OH)2:H2O
	Ca2Fe2O5(s)     -30.19     26.57   56.76  Ca2Fe2O5
	Ca4Cl2(OH)6:13H2O(s) -35.46     33.27   68.73  Ca4Cl2(OH)6:13H2O
	CaCl2:2H2O(cr)  -11.12     -3.17    7.95  CaCl2:2H2O
	CaCl2:4H2O(cr)   -8.54     -3.19    5.35  CaCl2:4H2O
	CaCl2:H2O(s)    -11.01     -3.16    7.85  CaCl2:H2O
	CaCO3:H2O(s)     -0.89     -8.49   -7.60  CaCO3:H2O
	CaFe2O4(s)       -6.85     14.39   21.24  CaFe2O4
	Calcite           0.00     -8.48   -8.48  CaCO3
	CaMg3(CO3)4(s)   -3.59    -34.40  -30.81  CaMg3(CO3)4
	CaO(cr)         -20.52     12.18   32.70  CaO
	Carnallite      -11.00     -6.67    4.33  KMgCl3:6H2O
	Celestite         0.00     -6.62   -6.62  Sr(SO4)
	CH4(g)          -13.62    -54.67  -41.05  CH4
	Chrysotile       -4.60     28.57   33.17  Mg3Si2O5(OH)4
	Cl2(g)          -52.82     -6.84   45.98  Cl2
	CO(g)           -14.52    -29.16  -14.64  CO
	CO2(g)           -2.51    -20.66  -18.15  CO2
	Cristobalite     -0.58     -3.74   -3.16  SiO2
	CSH0.8           -5.06      5.99   11.05  Ca0.8SiO2.8:1.54H2O
	CSH1.2           -8.44     10.86   19.30  Ca1.2SiO3.2:2.06H2O
	CSH1.6          -12.27     15.73   28.00  Ca1.6SiO3.6:2.58H2O
	Dolomite          0.00    -17.12  -17.12  CaMg(CO3)2
	Epsonite         -2.93     -4.81   -1.88  Mg(SO4):7H2O
	Ettringite-Fe   -29.81     24.72   54.53  Ca6Fe2(SO4)3(OH)12:26H2O
	Fayalite         -3.52     15.99   19.51  Fe2(SiO4)
	Fe(OH)2(cr)      -2.91      9.85   12.76  Fe(OH)2
	Fe(s)           -14.49      1.37   15.86  Fe
	FeO(s)           -3.51      9.86   13.37  FeO
	Ferrihydrite(am)  -1.45      1.09    2.54  Fe(OH)3
	Ferrosilite     -26.59      6.12   32.71  FeSiO3
	Ferryhydrite     -0.10      1.09    1.19  Fe(OH)3
	FeS(am)          -4.26     -7.21   -2.95  FeS
	Foshagite       -28.46     37.50   65.96  Ca4Si3O9(OH)2:0.5H2O
	Gaylussite       -6.27    -15.70   -9.43  CaNa2(CO3)2:5H2O
	Glaserite       -19.86    -27.47   -7.61  Na2K6(SO4)4
	Glauberite       -9.86     -7.89    1.97  Na2Ca(SO4)2
	Goethite          0.71      1.10    0.39  FeOOH
	Gypsum            0.00     -4.61   -4.61  CaSO4:2H2O
	Gyrolite         -9.21     13.13   22.34  Ca2Si3O7.5(OH):2H2O
	H2(g)            -8.50     -8.50    0.00  H2
	H2O(g)           -1.51    -43.00  -41.49  H2O
	H2S(g)           -9.08    -17.08   -8.00  H2S
	Halite           -2.52     -0.93    1.59  NaCl
	HCl(g)          -13.96     -7.67    6.29  HCl
	Hematite          3.22      2.20   -1.02  Fe2O3
	Hexahydrite      -3.16     -4.80   -1.64  Mg(SO4):6H2O
	Hillebrandite   -16.23     20.62   36.85  Ca2SiO3(OH)2:0.17H2O
	Hydrophilite    -14.93     -3.16   11.77  CaCl2
	Jaffeite        -48.47     65.59  114.06  Ca6(Si2O7)(OH)6
	Jennite         -60.21     87.12  147.33  Ca9Si6O16(OH)10:6(H2O)
	K(cr)           -49.38      0.11   49.49  K
	K(OH)(s)        -20.24      4.36   24.60  K(OH)
	K-carbonate     -14.99    -11.96    3.03  K2CO3:1.5H2O
	K-trona         -16.79    -25.89   -9.10  K2NaH(CO3)2:2H2O
	K2CO3(cr)       -17.35    -11.94    5.41  K2CO3
	K2O(s)          -75.39      8.72   84.11  K2O
	Kainite          -7.90     -8.09   -0.19  KMgCl(SO4):3H2O
	Kalicinite       -6.25    -16.31  -10.06  KHCO3
	Lansfordite      -3.64     -8.68   -5.04  Mg(CO3):5H2O
	Lawrencite      -14.37     -5.48    8.89  FeCl2
	Leonhardtite     -3.90     -4.79   -0.89  MgSO4:4H2O
	Leonite          -8.86    -12.84   -3.98  K2Mg(SO4)2:4H2O
	Lepidocrocite     0.35      1.10    0.75  FeOOH
	Mackinawite      -3.61     -7.21   -3.60  FeS
	Maghemite(disord)  -1.11      2.20    3.31  Fe2O3
	Maghemite(ord)   -1.32      2.20    3.52  Fe2O3
	Magnesite(nat)    0.27     -8.64   -8.91  MgCO3
	Magnesite(syn)   -0.54     -8.64   -8.10  Mg(CO3)
	Magnetite         1.66     12.07   10.41  Fe3O4
	Melanterite      -4.76     -6.97   -2.21  FeSO4:7H2O
	Mercallite      -11.02    -12.42   -1.40  KHSO4
	Mg(cr)          -76.25      3.53   79.78  Mg
	Mg(SO4)(s)      -13.85     -4.75    9.10  Mg(SO4)
	Mg(SO4):H2O(s)   -4.64     -4.76   -0.12  Mg(SO4):H2O
	Mg-oxychlorur    -9.70     16.33   26.03  Mg2Cl(OH)3:4H2O
	Mg5(CO3)4(OH)2:4H2O(s) -12.27    -22.58  -10.31  Mg5(CO3)4(OH)2:4H2O
	MgCl2(s)        -25.35     -3.32   22.03  MgCl2
	MgCl2:2H2O(s)   -16.23     -3.33   12.90  MgCl2:2H2O
	MgCl2:4H2O(s)   -10.79     -3.35    7.44  MgCl2:4H2O
	MgCl2:H2O(s)    -19.54     -3.32   16.22  MgCl2:H2O
	Mirabilite       -2.14     -3.37   -1.23  Na2SO4:10H2O
	Monosulfate-Fe  -31.54     34.06   65.60  Ca4Fe2(SO4)(OH)12:6H2O
	Na(cr)          -43.40      2.49   45.89  Na
	Na2(CO3)(cr)     -8.30     -7.18    1.12  Na2(CO3)
	Na2CO3:7H2O(s)   -6.78     -7.24   -0.46  Na2CO3:7H2O
	Na2O(cr)        -53.98     13.48   67.46  Na2O
	Nahcolite        -3.19    -13.93  -10.74  Na(HCO3)
	Natron           -6.43     -7.26   -0.83  Na2(CO3):10H2O
	Nesquehonite     -3.56     -8.66   -5.10  Mg(CO3):3H2O
	O2(g)           -66.09    -68.99   -2.90  O2
	Okenite          -4.49      4.69    9.18  CaSi2O5:2H2O
	Pentahydrite     -3.51     -4.79   -1.28  MgSO4:5H2O
	Periclase        -9.56     12.02   21.58  MgO
	Picromerite      -8.53    -12.86   -4.33  K2Mg(SO4)2:6H2O
	Pirssonite       -6.77    -15.68   -8.91  Na2Ca(CO3)2:2H2O
	Polyhalite       -8.28    -22.02  -13.74  K2MgCa2(SO4)4:2H2O
	Portlandite     -10.64     12.17   22.81  Ca(OH)2
	Pyrite            0.00    -15.79  -15.79  FeS2
	Pyrrhotite       -1.80     -7.39   -5.59  Fe0.87S
	Quartz            0.00     -3.74   -3.74  SiO2
	S(cr)            -6.43    -42.27  -35.84  S
	Si(cr)          -83.92    -20.73   63.19  Si
	Siderite          0.00    -10.80  -10.80  Fe(CO3)
	SiO2(am)         -1.03     -3.74   -2.71  SiO2
	SO2(g)          -19.95    -25.27   -5.32  SO2
	Sr(cr)          -97.13      1.66   98.79  Sr
	Sr(OH)2(s)      -17.36     10.15   27.51  Sr(OH)2
	Sr(OH)2:8H2O(s) -14.23     10.09   24.32  Sr(OH)2:8H2O
	Sr2SiO4(s)      -26.68     16.57   43.25  Sr2SiO4
	SrCl2(s)        -13.30     -5.18    8.12  SrCl2
	SrCl2:2H2O(s)    -8.67     -5.20    3.47  SrCl2:2H2O
	SrCl2:6H2O(s)    -6.84     -5.23    1.61  SrCl2:6H2O
	SrCl2:H2O(s)    -10.10     -5.19    4.91  SrCl2:H2O
	SrO(cr)         -31.82     10.16   41.98  SrO
	SrS(s)          -21.60     -6.92   14.68  SrS
	SrSiO3(s)        -6.74      6.42   13.16  SrSiO3
	Strontianite     -1.24    -10.51   -9.27  Sr(CO3)
	Sylvite          -4.18     -3.31    0.87  KCl
	Syngenite        -5.25    -12.70   -7.45  K2Ca(SO4)2:6H2O
	Tachyhydrite    -27.26     -9.88   17.38  Mg2CaCl6:12H2O
	Thermonatrite    -7.67     -7.19    0.48  Na2(CO3):H2O
	Thernardite      -2.94     -3.30   -0.36  Na2SO4
	Tobermorite-11A -27.15     38.43   65.58  Ca5Si6O16.5(OH):5H2O
	Tobermorite-14A -24.55     38.39   62.94  Ca5Si6O16.5(OH):10H2O
	Troilite         -1.90     -7.21   -5.31  FeS
	Trona            -9.74    -21.12  -11.38  Na3H(CO3)2:2H2O
	Truscottite     -36.70     40.38   77.08  Ca7Si12O29(OH)4:H2O
	Vaterite         -0.58     -8.48   -7.90  CaCO3
	Xonotlite       -40.69     50.65   91.34  Ca6Si6O17(OH)2


Reaction step 2.

Using solution 2.	High_SO4_high_sal 
Using pure phase assemblage 1.	
Using reaction 1.	

Reaction 1.	

	  6.000e+00 moles of the following reaction have been added:

	                 Relative
	Reactant            moles

	H2O                 -1.00000

	                 Relative
	Element             moles
	H                   -2.00000
	O                   -1.00000

-------------------------------Phase assemblage--------------------------------

                                                      Moles in assemblage
Phase               SI  log IAP  log K(T, P)   Initial       Final       Delta

Calcite           0.00    -8.48     -8.48    1.000e+00   9.976e-01  -2.445e-03
Celestite        -0.00    -6.62     -6.62    1.000e+00   1.000e+00   1.754e-05
Dolomite          0.00   -17.12    -17.12    1.000e+00   1.001e+00   1.314e-03
Gypsum            0.00    -4.61     -4.61    0.000e+00   3.275e-03   3.275e-03
Pyrite           -0.00   -15.79    -15.79    1.000e+00   1.000e+00  -1.323e-11
Quartz           -0.00    -3.74     -3.74    1.000e+00   1.000e+00   2.090e-05
Siderite         -0.00   -10.80    -10.80    1.000e+00   9.998e-01  -1.791e-04

-----------------------------Solution composition------------------------------

	Elements           Molality       Moles

	C                 1.678e-03   1.496e-03
	Ca                3.170e-02   2.827e-02
	Cl                5.610e-01   5.003e-01
	Fe                2.009e-04   1.791e-04
	K                 2.240e-03   1.998e-03
	Mg                2.521e-02   2.248e-02
	Na                5.225e-01   4.660e-01
	S                 3.863e-02   3.445e-02
	Si                1.854e-04   1.653e-04
	Sr                3.977e-04   3.546e-04

----------------------------Description of solution----------------------------

                                       pH  =   7.202      Charge balance
                                       pe  =  -2.946      Adjusted to redox equilibrium
                        Activity of water  =   0.981
                           Ionic strength  =   6.922e-01
                       Mass of water (kg)  =   8.918e-01
                 Total alkalinity (eq/kg)  =   1.599e-03
                       Total CO2 (mol/kg)  =   1.678e-03
                      Temperature (deg C)  =  25.00
                  Electrical balance (eq)  =   4.429e-11
 Percent error, 100*(Cat-|An|)/(Cat+|An|)  =   0.00
                               Iterations  =  28
                         Gamma iterations  =   6
                      Osmotic coefficient  =   0.91196
                                  Total H  = 9.900885e+01
                                  Total O  = 4.964625e+01

----------------------------Distribution of species----------------------------

                                            Log       Log         Log     mole V
   Species          Molality    Activity  Molality  Activity     Gamma   cm3/mol

   OH-             2.300e-07   1.563e-07    -6.638    -6.806    -0.168     (0)  
   H+              8.320e-08   6.277e-08    -7.080    -7.202    -0.122      0.00
   H2O             5.551e+01   9.810e-01     1.744    -0.008     0.000     18.07
C(-4)         3.469e-17
   CH4             3.469e-17   3.469e-17   -16.460   -16.460     0.000     (0)  
C(4)          1.678e-03
   HCO3-           1.240e-03   8.024e-04    -2.907    -3.096    -0.189     (0)  
   Na(HCO3)        1.572e-04   1.572e-04    -3.804    -3.804     0.000     (0)  
   CO2             1.150e-04   1.150e-04    -3.939    -3.939     0.000     (0)  
   Ca(HCO3)+       8.646e-05   5.595e-05    -4.063    -4.252    -0.189     (0)  
   Mg(HCO3)+       5.210e-05   3.371e-05    -4.283    -4.472    -0.189     (0)  
   Fe(CO3)         7.762e-06   7.762e-06    -5.110    -5.110     0.000     (0)  
   Na(CO3)-        5.993e-06   3.878e-06    -5.222    -5.411    -0.189     (0)  
   CaCO3           5.495e-06   5.495e-06    -5.260    -5.260     0.000     (0)  
   CO3-2           3.754e-06   5.979e-07    -5.426    -6.223    -0.798     (0)  
   Mg(CO3)         2.188e-06   2.188e-06    -5.660    -5.660     0.000     (0)  
   Sr(HCO3)+       9.775e-07   6.325e-07    -6.010    -6.199    -0.189     (0)  
   FeHCO3+         9.053e-07   5.858e-07    -6.043    -6.232    -0.189     (0)  
   FeCO3OH-        3.572e-08   2.311e-08    -7.447    -7.636    -0.189     (0)  
   Sr(CO3)         2.010e-08   2.010e-08    -7.697    -7.697     0.000     (0)  
   FeCO3OH         1.576e-09   1.576e-09    -8.802    -8.802     0.000     (0)  
   Fe(CO3)2-2      1.523e-09   2.671e-10    -8.817    -9.573    -0.756     (0)  
   Fe(CO3)3-3      5.471e-14   1.089e-15   -13.262   -14.963    -1.701     (0)  
   CO              3.000e-18   3.000e-18   -17.523   -17.523     0.000     (0)  
Ca            3.170e-02
   Ca+2            2.640e-02   5.539e-03    -1.578    -2.257    -0.678     (0)  
   Ca(SO4)         5.208e-03   5.208e-03    -2.283    -2.283     0.000     (0)  
   Ca(HCO3)+       8.646e-05   5.595e-05    -4.063    -4.252    -0.189     (0)  
   CaCO3           5.495e-06   5.495e-06    -5.260    -5.260     0.000     (0)  
   Ca(H3SiO4)+     3.531e-08   2.285e-08    -7.452    -7.641    -0.189     (0)  
   Ca(OH)+         2.220e-08   1.436e-08    -7.654    -7.843    -0.189     (0)  
   Ca(S2O3)        1.319e-15   1.319e-15   -14.880   -14.880     0.000     (0)  
Cl            5.610e-01
   Cl-             5.559e-01   3.789e-01    -0.255    -0.421    -0.166     (0)  
   MgCl+           5.023e-03   3.251e-03    -2.299    -2.488    -0.189     (0)  
   SrCl+           5.179e-05   3.352e-05    -4.286    -4.475    -0.189     (0)  
   FeCl+           2.143e-05   1.387e-05    -4.669    -4.858    -0.189     (0)  
   HCl             4.638e-09   4.638e-09    -8.334    -8.334     0.000     (0)  
   FeCl+2          1.591e-19   2.790e-20   -18.798   -19.554    -0.756     (0)  
   FeCl2+          8.189e-20   5.299e-20   -19.087   -19.276    -0.189     (0)  
   FeCl3           2.152e-21   2.152e-21   -20.667   -20.667     0.000     (0)  
   FeCl4-          1.515e-23   9.802e-24   -22.820   -23.009    -0.189     (0)  
   Cl2             0.000e+00   0.000e+00   -53.946   -53.946     0.000     (0)  
   ClO4-           0.000e+00   0.000e+00  -154.498  -154.498     0.000     (0)  
Fe(2)         2.009e-04
   Fe+2            1.512e-04   2.651e-05    -3.821    -4.577    -0.756     (0)  
   FeCl+           2.143e-05   1.387e-05    -4.669    -4.858    -0.189     (0)  
   Fe(SO4)         1.935e-05   1.935e-05    -4.713    -4.713     0.000     (0)  
   Fe(CO3)         7.762e-06   7.762e-06    -5.110    -5.110     0.000     (0)  
   FeHCO3+         9.053e-07   5.858e-07    -6.043    -6.232    -0.189     (0)  
   Fe(OH)+         2.024e-07   1.310e-07    -6.694    -6.883    -0.189     (0)  
   FeCO3OH-        3.572e-08   2.311e-08    -7.447    -7.636    -0.189     (0)  
   Fe(CO3)2-2      1.523e-09   2.671e-10    -8.817    -9.573    -0.756     (0)  
   Fe(HS)+         1.230e-10   7.958e-11    -9.910   -10.099    -0.189     (0)  
   Fe(OH)2         1.626e-11   1.626e-11   -10.789   -10.789     0.000     (0)  
   Fe(HSO4)+       1.392e-11   9.005e-12   -10.856   -11.046    -0.189     (0)  
   Fe(OH)3-        1.968e-15   1.273e-15   -14.706   -14.895    -0.189     (0)  
   Fe(HS)2         1.407e-18   1.407e-18   -17.852   -17.852     0.000     (0)  
   Fe(OH)4-2       9.015e-22   1.581e-22   -21.045   -21.801    -0.756     (0)  
Fe(3)         1.581e-09
   FeCO3OH         1.576e-09   1.576e-09    -8.802    -8.802     0.000     (0)  
   Fe(OH)3         3.081e-12   3.081e-12   -11.511   -11.511     0.000     (0)  
   Fe(OH)2+        2.365e-12   1.530e-12   -11.626   -11.815    -0.189     (0)  
   Fe(OH)4-        6.785e-14   4.391e-14   -13.168   -13.357    -0.189     (0)  
   Fe(CO3)3-3      5.471e-14   1.089e-15   -13.262   -14.963    -1.701     (0)  
   Fe(OH)+2        1.329e-15   2.958e-16   -14.876   -15.529    -0.653     (0)  
   Fe(H3SiO4)+2    1.068e-16   1.873e-17   -15.971   -16.727    -0.756     (0)  
   Fe(SO4)+        2.627e-19   1.700e-19   -18.581   -18.770    -0.189     (0)  
   FeCl+2          1.591e-19   2.790e-20   -18.798   -19.554    -0.756     (0)  
   Fe+3            1.473e-19   2.931e-21   -18.832   -20.533    -1.701     (0)  
   FeCl2+          8.189e-20   5.299e-20   -19.087   -19.276    -0.189     (0)  
   Fe(SO4)2-       2.414e-20   1.562e-20   -19.617   -19.806    -0.189     (0)  
   FeCl3           2.152e-21   2.152e-21   -20.667   -20.667     0.000     (0)  
   FeCl4-          1.515e-23   9.802e-24   -22.820   -23.009    -0.189     (0)  
   FeHSO4+2        2.501e-26   2.501e-26   -25.602   -25.602     0.000     (0)  
   Fe2(OH)2+4      2.354e-30   2.354e-30   -29.628   -29.628     0.000     (0)  
   FeS2O3+         6.981e-32   6.981e-32   -31.156   -31.156     0.000     (0)  
   Fe3(OH)4+5      7.527e-40   7.527e-40   -39.123   -39.123     0.000     (0)  
H(0)          5.120e-12
   H2              2.560e-12   2.560e-12   -11.592   -11.592     0.000     (0)  
K             2.240e-03
   K+              2.240e-03   1.443e-03    -2.650    -2.841    -0.191     (0)  
Mg            2.521e-02
   Mg+2            1.713e-02   3.832e-03    -1.766    -2.417    -0.650     (0)  
   MgCl+           5.023e-03   3.251e-03    -2.299    -2.488    -0.189     (0)  
   Mg(SO4)         2.997e-03   2.997e-03    -2.523    -2.523     0.000     (0)  
   Mg(HCO3)+       5.210e-05   3.371e-05    -4.283    -4.472    -0.189     (0)  
   Mg(CO3)         2.188e-06   2.188e-06    -5.660    -5.660     0.000     (0)  
   Mg(OH)+         1.933e-07   1.251e-07    -6.714    -6.903    -0.189     (0)  
   Mg(H3SiO4)+     4.344e-08   2.811e-08    -7.362    -7.551    -0.189     (0)  
   Mg(S2O3)        7.590e-16   7.590e-16   -15.120   -15.120     0.000     (0)  
   Mg4(OH)4+4      2.418e-18   2.286e-21   -17.617   -20.641    -3.024     (0)  
Na            5.225e-01
   Na+             5.224e-01   3.483e-01    -0.282    -0.458    -0.176     (0)  
   Na(HCO3)        1.572e-04   1.572e-04    -3.804    -3.804     0.000     (0)  
   NaH3SiO4        9.495e-06   9.495e-06    -5.022    -5.022     0.000     (0)  
   Na(CO3)-        5.993e-06   3.878e-06    -5.222    -5.411    -0.189     (0)  
   Na(S2O3)-       6.575e-15   4.255e-15   -14.182   -14.371    -0.189     (0)  
O(0)          0.000e+00
   O2              0.000e+00   0.000e+00   -68.973   -68.973     0.000     (0)  
S(-2)         4.192e-10
   HS-             2.121e-10   1.372e-10    -9.674    -9.863    -0.189     (0)  
   Fe(HS)+         1.230e-10   7.958e-11    -9.910   -10.099    -0.189     (0)  
   H2S             8.418e-11   8.418e-11   -10.075   -10.075     0.000     (0)  
   Fe(HS)2         1.407e-18   1.407e-18   -17.852   -17.852     0.000     (0)  
   S-2             9.902e-20   1.736e-20   -19.004   -19.760    -0.756     (0)  
S(2)          5.154e-14
   S2O3-2          1.710e-14   2.998e-15   -13.767   -14.523    -0.756     (0)  
   Na(S2O3)-       6.575e-15   4.255e-15   -14.182   -14.371    -0.189     (0)  
   Ca(S2O3)        1.319e-15   1.319e-15   -14.880   -14.880     0.000     (0)  
   Mg(S2O3)        7.590e-16   7.590e-16   -15.120   -15.120     0.000     (0)  
   Sr(S2O3)        1.712e-17   1.712e-17   -16.766   -16.766     0.000     (0)  
   H(S2O3)-        1.526e-20   9.877e-21   -19.816   -20.005    -0.189     (0)  
   H2(S2O3)        2.468e-27   2.468e-27   -26.608   -26.608     0.000     (0)  
   FeS2O3+         6.981e-32   6.981e-32   -31.156   -31.156     0.000     (0)  
S(3)          2.638e-34
   S2O4-2          1.319e-34   1.319e-34   -33.880   -33.880     0.000     (0)  
   HS2O4-          2.619e-39   2.619e-39   -38.582   -38.582     0.000     (0)  
   H2S2O4          0.000e+00   0.000e+00   -45.484   -45.484     0.000     (0)  
S(4)          2.674e-14
   SO3-2           2.177e-14   3.466e-15   -13.662   -14.460    -0.798     (0)  
   H(SO3)-         4.974e-15   3.219e-15   -14.303   -14.492    -0.189     (0)  
   H2(SO3)         1.464e-20   1.464e-20   -19.835   -19.835     0.000     (0)  
   S2O5-2          3.417e-31   3.417e-31   -30.466   -30.466     0.000     (0)  
S(6)          3.863e-02
   SO4-2           3.035e-02   4.606e-03    -1.518    -2.337    -0.819     (0)  
   Ca(SO4)         5.208e-03   5.208e-03    -2.283    -2.283     0.000     (0)  
   Mg(SO4)         2.997e-03   2.997e-03    -2.523    -2.523     0.000     (0)  
   Sr(SO4)         4.786e-05   4.786e-05    -4.320    -4.320     0.000     (0)  
   Fe(SO4)         1.935e-05   1.935e-05    -4.713    -4.713     0.000     (0)  
   H(SO4)-         4.319e-08   2.761e-08    -7.365    -7.559    -0.194     (0)  
   Fe(HSO4)+       1.392e-11   9.005e-12   -10.856   -11.046    -0.189     (0)  
   Fe(SO4)+        2.627e-19   1.700e-19   -18.581   -18.770    -0.189     (0)  
   Fe(SO4)2-       2.414e-20   1.562e-20   -19.617   -19.806    -0.189     (0)  
   SO2             1.492e-20   1.492e-20   -19.826   -19.826     0.000     (0)  
   S2-2            1.030e-21   1.806e-22   -20.987   -21.743    -0.756     (0)  
   FeHSO4+2        2.501e-26   2.501e-26   -25.602   -25.602     0.000     (0)  
   S3-2            5.415e-27   5.415e-27   -26.266   -26.266     0.000     (0)  
   S4-2            1.290e-32   1.290e-32   -31.889   -31.889     0.000     (0)  
   S4O6-2          1.824e-36   1.824e-36   -35.739   -35.739     0.000     (0)  
   S5-2            1.851e-38   1.851e-38   -37.732   -37.732     0.000     (0)  
   S3O6-2          0.000e+00   0.000e+00   -43.856   -43.856     0.000     (0)  
   S5O6-2          0.000e+00   0.000e+00   -57.022   -57.022     0.000     (0)  
   HSO5-           0.000e+00   0.000e+00   -61.245   -61.245     0.000     (0)  
   S2O8-2          0.000e+00   0.000e+00   -75.946   -75.946     0.000     (0)  
Si            1.854e-04
   H4(SiO4)        1.751e-04   1.751e-04    -3.757    -3.757     0.000     (0)  
   NaH3SiO4        9.495e-06   9.495e-06    -5.022    -5.022     0.000     (0)  
   H3(SiO4)-       6.860e-07   4.032e-07    -6.164    -6.394    -0.231     (0)  
   Mg(H3SiO4)+     4.344e-08   2.811e-08    -7.362    -7.551    -0.189     (0)  
   Ca(H3SiO4)+     3.531e-08   2.285e-08    -7.452    -7.641    -0.189     (0)  
   Si2O2(OH)5-     6.729e-09   3.955e-09    -8.172    -8.403    -0.231     (0)  
   Si2O3(OH)4-2    5.418e-12   7.932e-13   -11.266   -12.101    -0.834     (0)  
   H2(SiO4)-2      2.070e-12   3.219e-13   -11.684   -12.492    -0.808     (0)  
   Si3O5(OH)5-3    4.842e-16   7.133e-18   -15.315   -17.147    -1.832     (0)  
   Fe(H3SiO4)+2    1.068e-16   1.873e-17   -15.971   -16.727    -0.756     (0)  
   Si3O6(OH)3-3    3.921e-17   5.776e-19   -16.407   -18.238    -1.832     (0)  
   Si4O7(OH)5-3    8.811e-18   1.298e-19   -17.055   -18.887    -1.832     (0)  
   Si4O8(OH)4-4    3.466e-20   3.277e-23   -19.460   -22.485    -3.024     (0)  
Sr            3.977e-04
   Sr+2            2.970e-04   5.208e-05    -3.527    -4.283    -0.756     (0)  
   SrCl+           5.179e-05   3.352e-05    -4.286    -4.475    -0.189     (0)  
   Sr(SO4)         4.786e-05   4.786e-05    -4.320    -4.320     0.000     (0)  
   Sr(HCO3)+       9.775e-07   6.325e-07    -6.010    -6.199    -0.189     (0)  
   Sr(CO3)         2.010e-08   2.010e-08    -7.697    -7.697     0.000     (0)  
   Sr(OH)+         6.450e-11   4.174e-11   -10.190   -10.379    -0.189     (0)  
   Sr(S2O3)        1.712e-17   1.712e-17   -16.766   -16.766     0.000     (0)  

------------------------------Saturation indices-------------------------------

	Phase               SI   log IAP   log K(298 K,   1 atm)

	Afwillite       -20.51     28.91   49.42  Ca3Si2O4(OH)6
	Anhydrite        -0.15     -4.59   -4.44  Ca(SO4)
	Antarcticite     -7.09     -3.15    3.94  CaCl2:6H2O
	Aragonite        -0.17     -8.48   -8.31  CaCO3
	Arcanite         -6.17     -8.02   -1.85  K2SO4
	Artinite         -6.50      3.31    9.81  Mg2(CO3)(OH)2:3H2O
	Bassanite        -0.68     -4.60   -3.92  CaSO4:0.5H2O
	Bischofite       -7.77     -3.31    4.46  MgCl2:6H2O
	Bloedite         -5.69     -8.04   -2.35  Na2Mg(SO4)2:4H2O
	Brucite          -5.13     11.97   17.10  Mg(OH)2
	Burkeite        -12.87    -13.64   -0.77  Na6(CO3)(SO4)2
	C(cr)            -5.48    -37.63  -32.15  C
	C2SH(alfa)      -15.01     20.53   35.54  Ca2(HSiO4)(OH)
	C3FH6           -31.89     38.49   70.38  Ca3Fe2(OH)12
	C4FH13          -43.14     50.57   93.71  Ca4Fe2(OH)14:6H2O
	Ca(s)           -93.21      3.64   96.85  Ca
	Ca(SO3)(s)      -10.22    -16.72   -6.50  Ca(SO3)
	Ca2Cl2(OH)2:H2O(s) -17.51      9.02   26.53  Ca2Cl2(OH)2:H2O
	Ca2Fe2O5(s)     -30.36     26.40   56.76  Ca2Fe2O5
	Ca4Cl2(OH)6:13H2O(s) -35.54     33.19   68.73  Ca4Cl2(OH)6:13H2O
	CaCl2:2H2O(cr)  -11.07     -3.12    7.95  CaCl2:2H2O
	CaCl2:4H2O(cr)   -8.48     -3.13    5.35  CaCl2:4H2O
	CaCl2:H2O(s)    -10.96     -3.11    7.85  CaCl2:H2O
	CaCO3:H2O(s)     -0.89     -8.49   -7.60  CaCO3:H2O
	CaFe2O4(s)       -6.98     14.26   21.24  CaFe2O4
	Calcite           0.00     -8.48   -8.48  CaCO3
	CaMg3(CO3)4(s)   -3.59    -34.40  -30.81  CaMg3(CO3)4
	CaO(cr)         -20.56     12.14   32.70  CaO
	Carnallite      -10.90     -6.57    4.33  KMgCl3:6H2O
	Celestite        -0.00     -6.62   -6.62  Sr(SO4)
	CH4(g)          -13.60    -54.65  -41.05  CH4
	Chrysotile       -4.73     28.44   33.17  Mg3Si2O5(OH)4
	Cl2(g)          -52.72     -6.74   45.98  Cl2
	CO(g)           -14.48    -29.12  -14.64  CO
	CO2(g)           -2.47    -20.62  -18.15  CO2
	Cristobalite     -0.58     -3.74   -3.16  SiO2
	CSH0.8           -5.09      5.96   11.05  Ca0.8SiO2.8:1.54H2O
	CSH1.2           -8.49     10.81   19.30  Ca1.2SiO3.2:2.06H2O
	CSH1.6          -12.34     15.66   28.00  Ca1.6SiO3.6:2.58H2O
	Dolomite          0.00    -17.12  -17.12  CaMg(CO3)2
	Epsonite         -2.93     -4.81   -1.88  Mg(SO4):7H2O
	Ettringite-Fe   -30.04     24.49   54.53  Ca6Fe2(SO4)3(OH)12:26H2O
	Fayalite         -3.61     15.90   19.51  Fe2(SiO4)
	Fe(OH)2(cr)      -2.95      9.81   12.76  Fe(OH)2
	Fe(s)           -14.54      1.32   15.86  Fe
	FeO(s)           -3.55      9.82   13.37  FeO
	Ferrihydrite(am)  -1.49      1.05    2.54  Fe(OH)3
	Ferrosilite     -26.63      6.08   32.71  FeSiO3
	Ferryhydrite     -0.14      1.05    1.19  Fe(OH)3
	FeS(am)          -4.29     -7.24   -2.95  FeS
	Foshagite       -28.63     37.33   65.96  Ca4Si3O9(OH)2:0.5H2O
	Gaylussite       -6.23    -15.66   -9.43  CaNa2(CO3)2:5H2O
	Glaserite       -19.70    -27.31   -7.61  Na2K6(SO4)4
	Glauberite       -9.82     -7.85    1.97  Na2Ca(SO4)2
	Goethite          0.67      1.06    0.39  FeOOH
	Gypsum            0.00     -4.61   -4.61  CaSO4:2H2O
	Gyrolite         -9.30     13.04   22.34  Ca2Si3O7.5(OH):2H2O
	H2(g)            -8.51     -8.51    0.00  H2
	H2O(g)           -1.51    -43.00  -41.49  H2O
	H2S(g)           -9.06    -17.06   -8.00  H2S
	Halite           -2.47     -0.88    1.59  NaCl
	HCl(g)          -13.91     -7.62    6.29  HCl
	Hematite          3.14      2.12   -1.02  Fe2O3
	Hexahydrite      -3.16     -4.80   -1.64  Mg(SO4):6H2O
	Hillebrandite   -16.32     20.53   36.85  Ca2SiO3(OH)2:0.17H2O
	Hydrophilite    -14.87     -3.10   11.77  CaCl2
	Jaffeite        -48.73     65.33  114.06  Ca6(Si2O7)(OH)6
	Jennite         -60.61     86.72  147.33  Ca9Si6O16(OH)10:6(H2O)
	K(cr)           -49.38      0.11   49.49  K
	K(OH)(s)        -20.25      4.35   24.60  K(OH)
	K-carbonate     -14.95    -11.92    3.03  K2CO3:1.5H2O
	K-trona         -16.70    -25.80   -9.10  K2NaH(CO3)2:2H2O
	K2CO3(cr)       -17.31    -11.90    5.41  K2CO3
	K2O(s)          -75.40      8.71   84.11  K2O
	Kainite          -7.85     -8.04   -0.19  KMgCl(SO4):3H2O
	Kalicinite       -6.21    -16.27  -10.06  KHCO3
	Lansfordite      -3.64     -8.68   -5.04  Mg(CO3):5H2O
	Lawrencite      -14.31     -5.42    8.89  FeCl2
	Leonhardtite     -3.90     -4.79   -0.89  MgSO4:4H2O
	Leonite          -8.82    -12.80   -3.98  K2Mg(SO4)2:4H2O
	Lepidocrocite     0.31      1.06    0.75  FeOOH
	Mackinawite      -3.64     -7.24   -3.60  FeS
	Maghemite(disord)  -1.19      2.12    3.31  Fe2O3
	Maghemite(ord)   -1.40      2.12    3.52  Fe2O3
	Magnesite(nat)    0.27     -8.64   -8.91  MgCO3
	Magnesite(syn)   -0.54     -8.64   -8.10  Mg(CO3)
	Magnetite         1.53     11.94   10.41  Fe3O4
	Melanterite      -4.76     -6.97   -2.21  FeSO4:7H2O
	Mercallite      -10.98    -12.38   -1.40  KHSO4
	Mg(cr)          -76.30      3.48   79.78  Mg
	Mg(SO4)(s)      -13.85     -4.75    9.10  Mg(SO4)
	Mg(SO4):H2O(s)   -4.64     -4.76   -0.12  Mg(SO4):H2O
	Mg-oxychlorur    -9.74     16.29   26.03  Mg2Cl(OH)3:4H2O
	Mg5(CO3)4(OH)2:4H2O(s) -12.31    -22.62  -10.31  Mg5(CO3)4(OH)2:4H2O
	MgCl2(s)        -25.29     -3.26   22.03  MgCl2
	MgCl2:2H2O(s)   -16.18     -3.28   12.90  MgCl2:2H2O
	MgCl2:4H2O(s)   -10.73     -3.29    7.44  MgCl2:4H2O
	MgCl2:H2O(s)    -19.49     -3.27   16.22  MgCl2:H2O
	Mirabilite       -2.11     -3.34   -1.23  Na2SO4:10H2O
	Monosulfate-Fe  -31.75     33.85   65.60  Ca4Fe2(SO4)(OH)12:6H2O
	Na(cr)          -43.40      2.49   45.89  Na
	Na2(CO3)(cr)     -8.26     -7.14    1.12  Na2(CO3)
	Na2CO3:7H2O(s)   -6.74     -7.20   -0.46  Na2CO3:7H2O
	Na2O(cr)        -53.98     13.48   67.46  Na2O
	Nahcolite        -3.14    -13.88  -10.74  Na(HCO3)
	Natron           -6.39     -7.22   -0.83  Na2(CO3):10H2O
	Nesquehonite     -3.57     -8.67   -5.10  Mg(CO3):3H2O
	O2(g)           -66.07    -68.97   -2.90  O2
	Okenite          -4.54      4.64    9.18  CaSi2O5:2H2O
	Pentahydrite     -3.52     -4.80   -1.28  MgSO4:5H2O
	Periclase        -9.60     11.98   21.58  MgO
	Picromerite      -8.49    -12.82   -4.33  K2Mg(SO4)2:6H2O
	Pirssonite       -6.73    -15.64   -8.91  Na2Ca(CO3)2:2H2O
	Polyhalite       -8.23    -21.97  -13.74  K2MgCa2(SO4)4:2H2O
	Portlandite     -10.68     12.13   22.81  Ca(OH)2
	Pyrite           -0.00    -15.79  -15.79  FeS2
	Pyrrhotite       -1.82     -7.41   -5.59  Fe0.87S
	Quartz           -0.00     -3.74   -3.74  SiO2
	S(cr)            -6.40    -42.24  -35.84  S
	Si(cr)          -83.94    -20.75   63.19  Si
	Siderite         -0.00    -10.80  -10.80  Fe(CO3)
	SiO2(am)         -1.03     -3.74   -2.71  SiO2
	SO2(g)          -19.92    -25.24   -5.32  SO2
	Sr(cr)          -97.18      1.61   98.79  Sr
	Sr(OH)2(s)      -17.41     10.10   27.51  Sr(OH)2
	Sr(OH)2:8H2O(s) -14.28     10.04   24.32  Sr(OH)2:8H2O
	Sr2SiO4(s)      -26.76     16.49   43.25  Sr2SiO4
	SrCl2(s)        -13.25     -5.13    8.12  SrCl2
	SrCl2:2H2O(s)    -8.61     -5.14    3.47  SrCl2:2H2O
	SrCl2:6H2O(s)    -6.79     -5.18    1.61  SrCl2:6H2O
	SrCl2:H2O(s)    -10.04     -5.13    4.91  SrCl2:H2O
	SrO(cr)         -31.87     10.11   41.98  SrO
	SrS(s)          -21.62     -6.94   14.68  SrS
	SrSiO3(s)        -6.79      6.37   13.16  SrSiO3
	Strontianite     -1.24    -10.51   -9.27  Sr(CO3)
	Sylvite          -4.13     -3.26    0.87  KCl
	Syngenite        -5.21    -12.66   -7.45  K2Ca(SO4)2:6H2O
	Tachyhydrite    -27.10     -9.72   17.38  Mg2CaCl6:12H2O
	Thermonatrite    -7.63     -7.15    0.48  Na2(CO3):H2O
	Thernardite      -2.89     -3.25   -0.36  Na2SO4
	Tobermorite-11A -27.37     38.21   65.58  Ca5Si6O16.5(OH):5H2O
	Tobermorite-14A -24.77     38.17   62.94  Ca5Si6O16.5(OH):10H2O
	Troilite         -1.93     -7.24   -5.31  FeS
	Trona            -9.66    -21.04  -11.38  Na3H(CO3)2:2H2O
	Truscottite     -37.01     40.07   77.08  Ca7Si12O29(OH)4:H2O
	Vaterite         -0.58     -8.48   -7.90  CaCO3
	Xonotlite       -40.95     50.39   91.34  Ca6Si6O17(OH)2


Reaction step 3.

Using solution 2.	High_SO4_high_sal 
Using pure phase assemblage 1.	
Using reaction 1.	

Reaction 1.	

	  9.000e+00 moles of the following reaction have been added:

	                 Relative
	Reactant            moles

	H2O                 -1.00000

	                 Relative
	Element             moles
	H                   -2.00000
	O                   -1.00000

-------------------------------Phase assemblage--------------------------------

                                                      Moles in assemblage
Phase               SI  log IAP  log K(T, P)   Initial       Final       Delta

Calcite           0.00    -8.48     -8.48    1.000e+00   9.963e-01  -3.722e-03
Celestite         0.00    -6.62     -6.62    1.000e+00   1.000e+00   2.591e-05
Dolomite          0.00   -17.12    -17.12    1.000e+00   1.002e+00   1.953e-03
Gypsum            0.00    -4.61     -4.61    0.000e+00   4.984e-03   4.984e-03
Pyrite            0.00   -15.79    -15.79    1.000e+00   1.000e+00  -6.571e-12
Quartz            0.00    -3.74     -3.74    1.000e+00   1.000e+00   3.135e-05
Siderite          0.00   -10.80    -10.80    1.000e+00   9.998e-01  -1.750e-04

-----------------------------Solution composition------------------------------

	Elements           Molality       Moles

	C                 1.779e-03   1.490e-03
	Ca                3.247e-02   2.720e-02
	Cl                5.972e-01   5.003e-01
	Fe                2.089e-04   1.750e-04
	K                 2.385e-03   1.998e-03
	Mg                2.607e-02   2.184e-02
	Na                5.563e-01   4.660e-01
	S                 3.907e-02   3.273e-02
	Si                1.849e-04   1.549e-04
	Sr                4.134e-04   3.463e-04

----------------------------Description of solution----------------------------

                                       pH  =   7.175      Charge balance
                                       pe  =  -2.916      Adjusted to redox equilibrium
                        Activity of water  =   0.980
                           Ionic strength  =   7.305e-01
                       Mass of water (kg)  =   8.377e-01
                 Total alkalinity (eq/kg)  =   1.687e-03
                       Total CO2 (mol/kg)  =   1.779e-03
                      Temperature (deg C)  =  25.00
                  Electrical balance (eq)  =   4.547e-11
 Percent error, 100*(Cat-|An|)/(Cat+|An|)  =   0.00
                               Iterations  =  27
                         Gamma iterations  =   6
                      Osmotic coefficient  =   0.91362
                                  Total H  = 9.300201e+01
                                  Total O  = 4.663592e+01

----------------------------Distribution of species----------------------------

                                            Log       Log         Log     mole V
   Species          Molality    Activity  Molality  Activity     Gamma   cm3/mol

   OH-             2.165e-07   1.468e-07    -6.665    -6.833    -0.169     (0)  
   H+              8.807e-08   6.676e-08    -7.055    -7.175    -0.120      0.00
   H2O             5.551e+01   9.798e-01     1.744    -0.009     0.000     18.07
C(-4)         3.610e-17
   CH4             3.610e-17   3.610e-17   -16.442   -16.442     0.000     (0)  
C(4)          1.779e-03
   HCO3-           1.301e-03   8.375e-04    -2.886    -3.077    -0.191     (0)  
   Na(HCO3)        1.742e-04   1.742e-04    -3.759    -3.759     0.000     (0)  
   CO2             1.278e-04   1.278e-04    -3.894    -3.894     0.000     (0)  
   Ca(HCO3)+       9.243e-05   5.950e-05    -4.034    -4.225    -0.191     (0)  
   Mg(HCO3)+       5.569e-05   3.585e-05    -4.254    -4.445    -0.191     (0)  
   Fe(CO3)         7.762e-06   7.762e-06    -5.110    -5.110     0.000     (0)  
   Na(CO3)-        6.276e-06   4.040e-06    -5.202    -5.394    -0.191     (0)  
   CaCO3           5.495e-06   5.495e-06    -5.260    -5.260     0.000     (0)  
   CO3-2           3.785e-06   5.868e-07    -5.422    -6.232    -0.810     (0)  
   Mg(CO3)         2.188e-06   2.188e-06    -5.660    -5.660     0.000     (0)  
   Sr(HCO3)+       1.042e-06   6.711e-07    -5.982    -6.173    -0.191     (0)  
   FeHCO3+         9.678e-07   6.231e-07    -6.014    -6.205    -0.191     (0)  
   FeCO3OH-        3.372e-08   2.171e-08    -7.472    -7.663    -0.191     (0)  
   Sr(CO3)         2.006e-08   2.006e-08    -7.698    -7.698     0.000     (0)  
   FeCO3OH         1.587e-09   1.587e-09    -8.799    -8.799     0.000     (0)  
   Fe(CO3)2-2      1.526e-09   2.621e-10    -8.816    -9.582    -0.765     (0)  
   Fe(CO3)3-3      5.924e-14   1.125e-15   -13.227   -14.949    -1.722     (0)  
   CO              3.282e-18   3.282e-18   -17.484   -17.484     0.000     (0)  
Ca            3.247e-02
   Ca+2            2.715e-02   5.643e-03    -1.566    -2.248    -0.682     (0)  
   Ca(SO4)         5.221e-03   5.221e-03    -2.282    -2.282     0.000     (0)  
   Ca(HCO3)+       9.243e-05   5.950e-05    -4.034    -4.225    -0.191     (0)  
   CaCO3           5.495e-06   5.495e-06    -5.260    -5.260     0.000     (0)  
   Ca(H3SiO4)+     3.393e-08   2.184e-08    -7.469    -7.661    -0.191     (0)  
   Ca(OH)+         2.135e-08   1.374e-08    -7.671    -7.862    -0.191     (0)  
   Ca(S2O3)        1.383e-15   1.383e-15   -14.859   -14.859     0.000     (0)  
Cl            5.972e-01
   Cl-             5.916e-01   4.023e-01    -0.228    -0.395    -0.167     (0)  
   MgCl+           5.463e-03   3.517e-03    -2.263    -2.454    -0.191     (0)  
   SrCl+           5.619e-05   3.617e-05    -4.250    -4.442    -0.191     (0)  
   FeCl+           2.330e-05   1.500e-05    -4.633    -4.824    -0.191     (0)  
   HCl             5.237e-09   5.237e-09    -8.281    -8.281     0.000     (0)  
   FeCl+2          1.885e-19   3.238e-20   -18.725   -19.490    -0.765     (0)  
   FeCl2+          1.014e-19   6.529e-20   -18.994   -19.185    -0.191     (0)  
   FeCl3           2.815e-21   2.815e-21   -20.551   -20.551     0.000     (0)  
   FeCl4-          2.115e-23   1.361e-23   -22.675   -22.866    -0.191     (0)  
   Cl2             0.000e+00   0.000e+00   -53.833   -53.833     0.000     (0)  
   ClO4-           0.000e+00   0.000e+00  -154.444  -154.444     0.000     (0)  
Fe(2)         2.089e-04
   Fe+2            1.573e-04   2.701e-05    -3.803    -4.568    -0.765     (0)  
   FeCl+           2.330e-05   1.500e-05    -4.633    -4.824    -0.191     (0)  
   Fe(SO4)         1.940e-05   1.940e-05    -4.712    -4.712     0.000     (0)  
   Fe(CO3)         7.762e-06   7.762e-06    -5.110    -5.110     0.000     (0)  
   FeHCO3+         9.678e-07   6.231e-07    -6.014    -6.205    -0.191     (0)  
   Fe(OH)+         1.947e-07   1.253e-07    -6.711    -6.902    -0.191     (0)  
   FeCO3OH-        3.372e-08   2.171e-08    -7.472    -7.663    -0.191     (0)  
   Fe(CO3)2-2      1.526e-09   2.621e-10    -8.816    -9.582    -0.765     (0)  
   Fe(HS)+         1.237e-10   7.965e-11    -9.908   -10.099    -0.191     (0)  
   Fe(HSO4)+       1.491e-11   9.600e-12   -10.826   -11.018    -0.191     (0)  
   Fe(OH)2         1.461e-11   1.461e-11   -10.835   -10.835     0.000     (0)  
   Fe(OH)3-        1.670e-15   1.075e-15   -14.777   -14.969    -0.191     (0)  
   Fe(HS)2         1.383e-18   1.383e-18   -17.859   -17.859     0.000     (0)  
   Fe(OH)4-2       7.295e-22   1.253e-22   -21.137   -21.902    -0.765     (0)  
Fe(3)         1.593e-09
   FeCO3OH         1.587e-09   1.587e-09    -8.799    -8.799     0.000     (0)  
   Fe(OH)3         2.789e-12   2.789e-12   -11.555   -11.555     0.000     (0)  
   Fe(OH)2+        2.291e-12   1.475e-12   -11.640   -11.831    -0.191     (0)  
   Fe(CO3)3-3      5.924e-14   1.125e-15   -13.227   -14.949    -1.722     (0)  
   Fe(OH)4-        5.798e-14   3.733e-14   -13.237   -13.428    -0.191     (0)  
   Fe(OH)+2        1.372e-15   3.035e-16   -14.863   -15.518    -0.655     (0)  
   Fe(H3SiO4)+2    1.118e-16   1.920e-17   -15.952   -16.717    -0.765     (0)  
   Fe(SO4)+        2.839e-19   1.827e-19   -18.547   -18.738    -0.191     (0)  
   FeCl+2          1.885e-19   3.238e-20   -18.725   -19.490    -0.765     (0)  
   Fe+3            1.687e-19   3.203e-21   -18.773   -20.494    -1.722     (0)  
   FeCl2+          1.014e-19   6.529e-20   -18.994   -19.185    -0.191     (0)  
   Fe(SO4)2-       2.567e-20   1.652e-20   -19.591   -19.782    -0.191     (0)  
   FeCl3           2.815e-21   2.815e-21   -20.551   -20.551     0.000     (0)  
   FeCl4-          2.115e-23   1.361e-23   -22.675   -22.866    -0.191     (0)  
   FeHSO4+2        2.860e-26   2.860e-26   -25.544   -25.544     0.000     (0)  
   Fe2(OH)2+4      2.480e-30   2.480e-30   -29.606   -29.606     0.000     (0)  
   FeS2O3+         7.851e-32   7.851e-32   -31.105   -31.105     0.000     (0)  
   Fe3(OH)4+5      7.643e-40   7.643e-40   -39.117   -39.117     0.000     (0)  
H(0)          5.034e-12
   H2              2.517e-12   2.517e-12   -11.599   -11.599     0.000     (0)  
K             2.385e-03
   K+              2.385e-03   1.529e-03    -2.623    -2.816    -0.193     (0)  
Mg            2.607e-02
   Mg+2            1.755e-02   3.904e-03    -1.756    -2.408    -0.653     (0)  
   MgCl+           5.463e-03   3.517e-03    -2.263    -2.454    -0.191     (0)  
   Mg(SO4)         3.004e-03   3.004e-03    -2.522    -2.522     0.000     (0)  
   Mg(HCO3)+       5.569e-05   3.585e-05    -4.254    -4.445    -0.191     (0)  
   Mg(CO3)         2.188e-06   2.188e-06    -5.660    -5.660     0.000     (0)  
   Mg(OH)+         1.860e-07   1.197e-07    -6.731    -6.922    -0.191     (0)  
   Mg(H3SiO4)+     4.174e-08   2.687e-08    -7.379    -7.571    -0.191     (0)  
   Mg(S2O3)        7.958e-16   7.958e-16   -15.099   -15.099     0.000     (0)  
   Mg4(OH)4+4      2.203e-18   1.916e-21   -17.657   -20.718    -3.061     (0)  
Na            5.563e-01
   Na+             5.561e-01   3.698e-01    -0.255    -0.432    -0.177     (0)  
   Na(HCO3)        1.742e-04   1.742e-04    -3.759    -3.759     0.000     (0)  
   NaH3SiO4        9.455e-06   9.455e-06    -5.024    -5.024     0.000     (0)  
   Na(CO3)-        6.276e-06   4.040e-06    -5.202    -5.394    -0.191     (0)  
   Na(S2O3)-       7.220e-15   4.648e-15   -14.141   -14.333    -0.191     (0)  
O(0)          0.000e+00
   O2              0.000e+00   0.000e+00   -68.959   -68.959     0.000     (0)  
S(-2)         4.211e-10
   HS-             2.094e-10   1.348e-10    -9.679    -9.870    -0.191     (0)  
   Fe(HS)+         1.237e-10   7.965e-11    -9.908   -10.099    -0.191     (0)  
   H2S             8.794e-11   8.794e-11   -10.056   -10.056     0.000     (0)  
   Fe(HS)2         1.383e-18   1.383e-18   -17.859   -17.859     0.000     (0)  
   S-2             9.338e-20   1.604e-20   -19.030   -19.795    -0.765     (0)  
S(2)          5.476e-14
   S2O3-2          1.797e-14   3.085e-15   -13.746   -14.511    -0.765     (0)  
   Na(S2O3)-       7.220e-15   4.648e-15   -14.141   -14.333    -0.191     (0)  
   Ca(S2O3)        1.383e-15   1.383e-15   -14.859   -14.859     0.000     (0)  
   Mg(S2O3)        7.958e-16   7.958e-16   -15.099   -15.099     0.000     (0)  
   Sr(S2O3)        1.791e-17   1.791e-17   -16.747   -16.747     0.000     (0)  
   H(S2O3)-        1.679e-20   1.081e-20   -19.775   -19.966    -0.191     (0)  
   H2(S2O3)        2.873e-27   2.873e-27   -26.542   -26.542     0.000     (0)  
   FeS2O3+         7.851e-32   7.851e-32   -31.105   -31.105     0.000     (0)  
S(3)          2.758e-34
   S2O4-2          1.379e-34   1.379e-34   -33.860   -33.860     0.000     (0)  
   HS2O4-          2.911e-39   2.911e-39   -38.536   -38.536     0.000     (0)  
   H2S2O4          0.000e+00   0.000e+00   -45.411   -45.411     0.000     (0)  
S(4)          2.681e-14
   SO3-2           2.166e-14   3.357e-15   -13.664   -14.474    -0.810     (0)  
   H(SO3)-         5.150e-15   3.315e-15   -14.288   -14.480    -0.191     (0)  
   H2(SO3)         1.603e-20   1.603e-20   -19.795   -19.795     0.000     (0)  
   S2O5-2          3.629e-31   3.629e-31   -30.440   -30.440     0.000     (0)  
S(6)          3.907e-02
   SO4-2           3.078e-02   4.531e-03    -1.512    -2.344    -0.832     (0)  
   Ca(SO4)         5.221e-03   5.221e-03    -2.282    -2.282     0.000     (0)  
   Mg(SO4)         3.004e-03   3.004e-03    -2.522    -2.522     0.000     (0)  
   Sr(SO4)         4.786e-05   4.786e-05    -4.320    -4.320     0.000     (0)  
   Fe(SO4)         1.940e-05   1.940e-05    -4.712    -4.712     0.000     (0)  
   H(SO4)-         4.546e-08   2.889e-08    -7.342    -7.539    -0.197     (0)  
   Fe(HSO4)+       1.491e-11   9.600e-12   -10.826   -11.018    -0.191     (0)  
   Fe(SO4)+        2.839e-19   1.827e-19   -18.547   -18.738    -0.191     (0)  
   Fe(SO4)2-       2.567e-20   1.652e-20   -19.591   -19.782    -0.191     (0)  
   SO2             1.636e-20   1.636e-20   -19.786   -19.786     0.000     (0)  
   S2-2            1.032e-21   1.772e-22   -20.986   -21.752    -0.765     (0)  
   FeHSO4+2        2.860e-26   2.860e-26   -25.544   -25.544     0.000     (0)  
   S3-2            5.647e-27   5.647e-27   -26.248   -26.248     0.000     (0)  
   S4-2            1.429e-32   1.429e-32   -31.845   -31.845     0.000     (0)  
   S4O6-2          2.222e-36   2.222e-36   -35.653   -35.653     0.000     (0)  
   S5-2            2.180e-38   2.180e-38   -37.662   -37.662     0.000     (0)  
   S3O6-2          0.000e+00   0.000e+00   -43.797   -43.797     0.000     (0)  
   S5O6-2          0.000e+00   0.000e+00   -56.910   -56.910     0.000     (0)  
   HSO5-           0.000e+00   0.000e+00   -61.219   -61.219     0.000     (0)  
   S2O8-2          0.000e+00   0.000e+00   -75.899   -75.899     0.000     (0)  
Si            1.849e-04
   H4(SiO4)        1.747e-04   1.747e-04    -3.758    -3.758     0.000     (0)  
   NaH3SiO4        9.455e-06   9.455e-06    -5.024    -5.024     0.000     (0)  
   H3(SiO4)-       6.509e-07   3.782e-07    -6.187    -6.422    -0.236     (0)  
   Mg(H3SiO4)+     4.174e-08   2.687e-08    -7.379    -7.571    -0.191     (0)  
   Ca(H3SiO4)+     3.393e-08   2.184e-08    -7.469    -7.661    -0.191     (0)  
   Si2O2(OH)5-     6.377e-09   3.705e-09    -8.195    -8.431    -0.236     (0)  
   Si2O3(OH)4-2    4.930e-12   6.987e-13   -11.307   -12.156    -0.849     (0)  
   H2(SiO4)-2      1.879e-12   2.839e-13   -11.726   -12.547    -0.821     (0)  
   Si3O5(OH)5-3    4.280e-16   5.901e-18   -15.369   -17.229    -1.861     (0)  
   Fe(H3SiO4)+2    1.118e-16   1.920e-17   -15.952   -16.717    -0.765     (0)  
   Si3O6(OH)3-3    3.470e-17   4.784e-19   -16.460   -18.320    -1.861     (0)  
   Si4O7(OH)5-3    7.789e-18   1.074e-19   -17.109   -18.969    -1.861     (0)  
   Si4O8(OH)4-4    2.930e-20   2.549e-23   -19.533   -22.594    -3.061     (0)  
Sr            4.134e-04
[...]
   Mg(HCO3)+       9.474e-05   5.854e-05    -4.023    -4.233    -0.209     (0)  
   Na(CO3)-        8.778e-06   5.424e-06    -5.057    -5.266    -0.209     (0)  
   Fe(CO3)         7.762e-06   7.762e-06    -5.110    -5.110     0.000     (0)  
   CaCO3           5.495e-06   5.495e-06    -5.260    -5.260     0.000     (0)  
   CO3-2           3.975e-06   4.904e-07    -5.401    -6.309    -0.909     (0)  
   Mg(CO3)         2.188e-06   2.188e-06    -5.660    -5.660     0.000     (0)  
   Sr(HCO3)+       1.728e-06   1.068e-06    -5.762    -5.971    -0.209     (0)  
   FeHCO3+         1.646e-06   1.017e-06    -5.783    -5.993    -0.209     (0)  
   FeCO3OH-        2.124e-08   1.312e-08    -7.673    -7.882    -0.209     (0)  
   Sr(CO3)         1.955e-08   1.955e-08    -7.709    -7.709     0.000     (0)  
   FeCO3OH         1.678e-09   1.678e-09    -8.775    -8.775     0.000     (0)  
   Fe(CO3)2-2      1.502e-09   2.190e-10    -8.823    -9.659    -0.836     (0)  
   Fe(CO3)3-3      1.045e-13   1.373e-15   -12.981   -14.862    -1.881     (0)  
   CO              6.546e-18   6.546e-18   -17.184   -17.184     0.000     (0)  
Ca            3.946e-02
   Ca+2            3.394e-02   6.753e-03    -1.469    -2.171    -0.701     (0)  
   Ca(SO4)         5.357e-03   5.357e-03    -2.271    -2.271     0.000     (0)  
   Ca(HCO3)+       1.572e-04   9.716e-05    -3.803    -4.013    -0.209     (0)  
   CaCO3           5.495e-06   5.495e-06    -5.260    -5.260     0.000     (0)  
   Ca(H3SiO4)+     2.524e-08   1.560e-08    -7.598    -7.807    -0.209     (0)  
   Ca(OH)+         1.609e-08   9.943e-09    -7.793    -8.002    -0.209     (0)  
   Ca(S2O3)        2.004e-15   2.004e-15   -14.698   -14.698     0.000     (0)  
Cl            9.751e-01
   Cl-             9.640e-01   6.471e-01    -0.016    -0.189    -0.173     (0)  
   MgCl+           1.095e-02   6.768e-03    -1.960    -2.170    -0.209     (0)  
   SrCl+           1.098e-04   6.785e-05    -3.959    -4.168    -0.209     (0)  
   FeCl+           4.672e-05   2.887e-05    -4.330    -4.540    -0.209     (0)  
   HCl             1.376e-08   1.376e-08    -7.862    -7.862     0.000     (0)  
   FeCl+2          7.471e-19   1.089e-19   -18.127   -18.963    -0.836     (0)  
   FeCl2+          5.718e-19   3.533e-19   -18.243   -18.452    -0.209     (0)  
   FeCl3           2.450e-20   2.450e-20   -19.611   -19.611     0.000     (0)  
   FeCl4-          3.085e-22   1.906e-22   -21.511   -21.720    -0.209     (0)  
   Cl2             0.000e+00   0.000e+00   -52.935   -52.935     0.000     (0)  
   ClO4-           0.000e+00   0.000e+00  -154.023  -154.023     0.000     (0)  
Fe(2)         2.979e-04
   Fe+2            2.216e-04   3.232e-05    -3.654    -4.491    -0.836     (0)  
   FeCl+           4.672e-05   2.887e-05    -4.330    -4.540    -0.209     (0)  
   Fe(SO4)         1.990e-05   1.990e-05    -4.701    -4.701     0.000     (0)  
   Fe(CO3)         7.762e-06   7.762e-06    -5.110    -5.110     0.000     (0)  
   FeHCO3+         1.646e-06   1.017e-06    -5.783    -5.993    -0.209     (0)  
   Fe(OH)+         1.467e-07   9.068e-08    -6.833    -7.042    -0.209     (0)  
   FeCO3OH-        2.124e-08   1.312e-08    -7.673    -7.882    -0.209     (0)  
   Fe(CO3)2-2      1.502e-09   2.190e-10    -8.823    -9.659    -0.836     (0)  
   Fe(HS)+         1.317e-10   8.138e-11    -9.880   -10.089    -0.209     (0)  
   Fe(HSO4)+       2.603e-11   1.609e-11   -10.585   -10.794    -0.209     (0)  
   Fe(OH)2         6.391e-12   6.391e-12   -11.194   -11.194     0.000     (0)  
   Fe(OH)3-        4.599e-16   2.842e-16   -15.337   -15.546    -0.209     (0)  
   Fe(HS)2         1.207e-18   1.207e-18   -17.918   -17.918     0.000     (0)  
   Fe(OH)4-2       1.374e-22   2.003e-23   -21.862   -22.698    -0.836     (0)  
Fe(3)         1.681e-09
   FeCO3OH         1.678e-09   1.678e-09    -8.775    -8.775     0.000     (0)  
   Fe(OH)2+        1.825e-12   1.128e-12   -11.739   -11.948    -0.209     (0)  
   Fe(OH)3         1.289e-12   1.289e-12   -11.890   -11.890     0.000     (0)  
   Fe(CO3)3-3      1.045e-13   1.373e-15   -12.981   -14.862    -1.881     (0)  
   Fe(OH)4-        1.688e-14   1.043e-14   -13.773   -13.982    -0.209     (0)  
   Fe(OH)+2        1.742e-15   3.839e-16   -14.759   -15.416    -0.657     (0)  
   Fe(H3SiO4)+2    1.644e-16   2.397e-17   -15.784   -16.620    -0.836     (0)  
   FeCl+2          7.471e-19   1.089e-19   -18.127   -18.963    -0.836     (0)  
   FeCl2+          5.718e-19   3.533e-19   -18.243   -18.452    -0.209     (0)  
   Fe(SO4)+        5.305e-19   3.278e-19   -18.275   -18.484    -0.209     (0)  
   Fe+3            5.100e-19   6.702e-21   -18.292   -20.174    -1.881     (0)  
   Fe(SO4)2-       4.113e-20   2.542e-20   -19.386   -19.595    -0.209     (0)  
   FeCl3           2.450e-20   2.450e-20   -19.611   -19.611     0.000     (0)  
   FeCl4-          3.085e-22   1.906e-22   -21.511   -21.720    -0.209     (0)  
   FeHSO4+2        8.378e-26   8.378e-26   -25.077   -25.077     0.000     (0)  
   Fe2(OH)2+4      3.967e-30   3.967e-30   -29.402   -29.402     0.000     (0)  
   FeS2O3+         1.989e-31   1.989e-31   -30.701   -30.701     0.000     (0)  
   Fe3(OH)4+5      9.348e-40   9.348e-40   -39.029   -39.029     0.000     (0)  
H(0)          4.391e-12
   H2              2.196e-12   2.196e-12   -11.658   -11.658     0.000     (0)  
K             3.894e-03
   K+              3.894e-03   2.395e-03    -2.410    -2.621    -0.211     (0)  
Mg            3.515e-02
   Mg+2            2.101e-02   4.672e-03    -1.677    -2.331    -0.653     (0)  
   MgCl+           1.095e-02   6.768e-03    -1.960    -2.170    -0.209     (0)  
   Mg(SO4)         3.083e-03   3.083e-03    -2.511    -2.511     0.000     (0)  
   Mg(HCO3)+       9.474e-05   5.854e-05    -4.023    -4.233    -0.209     (0)  
   Mg(CO3)         2.188e-06   2.188e-06    -5.660    -5.660     0.000     (0)  
   Mg(OH)+         1.401e-07   8.660e-08    -6.853    -7.062    -0.209     (0)  
   Mg(H3SiO4)+     3.105e-08   1.919e-08    -7.508    -7.717    -0.209     (0)  
   Mg(S2O3)        1.153e-15   1.153e-15   -14.938   -14.938     0.000     (0)  
   Mg4(OH)4+4      1.161e-18   5.249e-22   -17.935   -21.280    -3.345     (0)  
Na            9.083e-01
   Na+             9.079e-01   5.940e-01    -0.042    -0.226    -0.184     (0)  
   Na(HCO3)        3.818e-04   3.818e-04    -3.418    -3.418     0.000     (0)  
   NaH3SiO4        9.065e-06   9.065e-06    -5.043    -5.043     0.000     (0)  
   Na(CO3)-        8.778e-06   5.424e-06    -5.057    -5.266    -0.209     (0)  
   Na(S2O3)-       1.463e-14   9.042e-15   -13.835   -14.044    -0.209     (0)  
O(0)          0.000e+00
   O2              0.000e+00   0.000e+00   -68.852   -68.852     0.000     (0)  
S(-2)         4.405e-10
   HS-             1.862e-10   1.151e-10    -9.730    -9.939    -0.209     (0)  
   Fe(HS)+         1.317e-10   8.138e-11    -9.880   -10.089    -0.209     (0)  
   H2S             1.226e-10   1.226e-10    -9.911    -9.911     0.000     (0)  
   Fe(HS)2         1.207e-18   1.207e-18   -17.918   -17.918     0.000     (0)  
   S-2             5.751e-20   8.386e-21   -19.240   -20.076    -0.836     (0)  
S(2)          8.688e-14
   S2O3-2          2.562e-14   3.736e-15   -13.591   -14.428    -0.836     (0)  
   Na(S2O3)-       1.463e-14   9.042e-15   -13.835   -14.044    -0.209     (0)  
   Ca(S2O3)        2.004e-15   2.004e-15   -14.698   -14.698     0.000     (0)  
   Mg(S2O3)        1.153e-15   1.153e-15   -14.938   -14.938     0.000     (0)  
   Sr(S2O3)        2.529e-17   2.529e-17   -16.597   -16.597     0.000     (0)  
   H(S2O3)-        3.459e-20   2.138e-20   -19.461   -19.670    -0.209     (0)  
   H2(S2O3)        9.277e-27   9.277e-27   -26.033   -26.033     0.000     (0)  
   FeS2O3+         1.989e-31   1.989e-31   -30.701   -30.701     0.000     (0)  
S(3)          3.780e-34
   S2O4-2          1.890e-34   1.890e-34   -33.724   -33.724     0.000     (0)  
   HS2O4-          6.515e-39   6.515e-39   -38.186   -38.186     0.000     (0)  
   H2S2O4          0.000e+00   0.000e+00   -44.849   -44.849     0.000     (0)  
S(4)          2.726e-14
   SO3-2           2.062e-14   2.544e-15   -13.686   -14.595    -0.909     (0)  
   H(SO3)-         6.638e-15   4.102e-15   -14.178   -14.387    -0.209     (0)  
   H2(SO3)         3.239e-20   3.239e-20   -19.490   -19.490     0.000     (0)  
   S2O5-2          5.629e-31   5.629e-31   -30.250   -30.250     0.000     (0)  
S(6)          4.277e-02
   SO4-2           3.427e-02   3.886e-03    -1.465    -2.411    -0.945     (0)  
   Ca(SO4)         5.357e-03   5.357e-03    -2.271    -2.271     0.000     (0)  
   Mg(SO4)         3.083e-03   3.083e-03    -2.511    -2.511     0.000     (0)  
   Sr(SO4)         4.786e-05   4.786e-05    -4.320    -4.320     0.000     (0)  
   Fe(SO4)         1.990e-05   1.990e-05    -4.701    -4.701     0.000     (0)  
   H(SO4)-         6.685e-08   4.045e-08    -7.175    -7.393    -0.218     (0)  
   Fe(HSO4)+       2.603e-11   1.609e-11   -10.585   -10.794    -0.209     (0)  
   Fe(SO4)+        5.305e-19   3.278e-19   -18.275   -18.484    -0.209     (0)  
   Fe(SO4)2-       4.113e-20   2.542e-20   -19.386   -19.595    -0.209     (0)  
   SO2             3.349e-20   3.349e-20   -19.475   -19.475     0.000     (0)  
   S2-2            1.016e-21   1.481e-22   -20.993   -21.829    -0.836     (0)  
   FeHSO4+2        8.378e-26   8.378e-26   -25.077   -25.077     0.000     (0)  
   S3-2            7.542e-27   7.542e-27   -26.123   -26.123     0.000     (0)  
   S4-2            3.051e-32   3.051e-32   -31.516   -31.516     0.000     (0)  
   S4O6-2          9.962e-36   9.962e-36   -35.002   -35.002     0.000     (0)  
   S5-2            7.438e-38   7.438e-38   -37.129   -37.129     0.000     (0)  
   S3O6-2          0.000e+00   0.000e+00   -43.349   -43.349     0.000     (0)  
   S5O6-2          0.000e+00   0.000e+00   -56.055   -56.055     0.000     (0)  
   HSO5-           0.000e+00   0.000e+00   -61.019   -61.019     0.000     (0)  
   S2O8-2          0.000e+00   0.000e+00   -75.548   -75.548     0.000     (0)  
Si            1.798e-04
   H4(SiO4)        1.702e-04   1.702e-04    -3.769    -3.769     0.000     (0)  
   NaH3SiO4        9.065e-06   9.065e-06    -5.043    -5.043     0.000     (0)  
   H3(SiO4)-       4.318e-07   2.257e-07    -6.365    -6.646    -0.282     (0)  
   Mg(H3SiO4)+     3.105e-08   1.919e-08    -7.508    -7.717    -0.209     (0)  
   Ca(H3SiO4)+     2.524e-08   1.560e-08    -7.598    -7.807    -0.209     (0)  
   Si2O2(OH)5-     4.176e-09   2.183e-09    -8.379    -8.661    -0.282     (0)  
   Si2O3(OH)4-2    2.366e-12   2.521e-13   -11.626   -12.598    -0.972     (0)  
   H2(SiO4)-2      8.772e-13   1.038e-13   -12.057   -12.984    -0.927     (0)  
   Si3O5(OH)5-3    1.652e-16   1.287e-18   -15.782   -17.890    -2.108     (0)  
   Fe(H3SiO4)+2    1.644e-16   2.397e-17   -15.784   -16.620    -0.836     (0)  
   Si3O6(OH)3-3    1.357e-17   1.057e-19   -16.867   -18.976    -2.108     (0)  
   Si4O7(OH)5-3    3.007e-18   2.342e-20   -17.522   -19.630    -2.108     (0)  
   Si4O8(OH)4-4    7.533e-21   3.406e-24   -20.123   -23.468    -3.345     (0)  
Sr            5.828e-04
   Sr+2            4.234e-04   6.173e-05    -3.373    -4.209    -0.836     (0)  
   SrCl+           1.098e-04   6.785e-05    -3.959    -4.168    -0.209     (0)  
   Sr(SO4)         4.786e-05   4.786e-05    -4.320    -4.320     0.000     (0)  
   Sr(HCO3)+       1.728e-06   1.068e-06    -5.762    -5.971    -0.209     (0)  
   Sr(CO3)         1.955e-08   1.955e-08    -7.709    -7.709     0.000     (0)  
   Sr(OH)+         4.546e-11   2.809e-11   -10.342   -10.551    -0.209     (0)  
   Sr(S2O3)        2.529e-17   2.529e-17   -16.597   -16.597     0.000     (0)  

------------------------------Saturation indices-------------------------------

	Phase               SI   log IAP   log K(298 K,   1 atm)

	Afwillite       -21.72     27.70   49.42  Ca3Si2O4(OH)6
	Anhydrite        -0.14     -4.58   -4.44  Ca(SO4)
	Antarcticite     -6.58     -2.64    3.94  CaCl2:6H2O
	Aragonite        -0.17     -8.48   -8.31  CaCO3
	Arcanite         -5.80     -7.65   -1.85  K2SO4
	Artinite         -6.93      2.88    9.81  Mg2(CO3)(OH)2:3H2O
	Bassanite        -0.67     -4.59   -3.92  CaSO4:0.5H2O
	Bischofite       -7.26     -2.80    4.46  MgCl2:6H2O
	Bloedite         -5.31     -7.66   -2.35  Na2Mg(SO4)2:4H2O
	Brucite          -5.53     11.57   17.10  Mg(OH)2
	Burkeite        -11.72    -12.49   -0.77  Na6(CO3)(SO4)2
	C(cr)            -5.20    -37.35  -32.15  C
	C2SH(alfa)      -15.81     19.73   35.54  Ca2(HSiO4)(OH)
	C3FH6           -33.86     36.52   70.38  Ca3Fe2(OH)12
	C4FH13          -45.55     48.16   93.71  Ca4Fe2(OH)14:6H2O
	Ca(s)           -93.67      3.18   96.85  Ca
	Ca(SO3)(s)      -10.27    -16.77   -6.50  Ca(SO3)
	Ca2Cl2(OH)2:H2O(s) -17.37      9.16   26.53  Ca2Cl2(OH)2:H2O
	Ca2Fe2O5(s)     -31.90     24.86   56.76  Ca2Fe2O5
	Ca4Cl2(OH)6:13H2O(s) -36.29     32.44   68.73  Ca4Cl2(OH)6:13H2O
	CaCl2:2H2O(cr)  -10.53     -2.58    7.95  CaCl2:2H2O
	CaCl2:4H2O(cr)   -7.96     -2.61    5.35  CaCl2:4H2O
	CaCl2:H2O(s)    -10.41     -2.56    7.85  CaCl2:H2O
	CaCO3:H2O(s)     -0.89     -8.49   -7.60  CaCO3:H2O
	CaFe2O4(s)       -8.12     13.12   21.24  CaFe2O4
	Calcite           0.00     -8.48   -8.48  CaCO3
	CaMg3(CO3)4(s)   -3.59    -34.40  -30.81  CaMg3(CO3)4
	CaO(cr)         -20.96     11.74   32.70  CaO
	Carnallite       -9.94     -5.61    4.33  KMgCl3:6H2O
	Celestite         0.00     -6.62   -6.62  Sr(SO4)
	CH4(g)          -13.45    -54.50  -41.05  CH4
	Chrysotile       -5.94     27.23   33.17  Mg3Si2O5(OH)4
	Cl2(g)          -51.70     -5.72   45.98  Cl2
	CO(g)           -14.14    -28.78  -14.64  CO
	CO2(g)           -2.07    -20.22  -18.15  CO2
	Cristobalite     -0.58     -3.74   -3.16  SiO2
	CSH0.8           -5.42      5.63   11.05  Ca0.8SiO2.8:1.54H2O
	CSH1.2           -8.98     10.32   19.30  Ca1.2SiO3.2:2.06H2O
	CSH1.6          -12.99     15.01   28.00  Ca1.6SiO3.6:2.58H2O
	Dolomite          0.00    -17.12  -17.12  CaMg(CO3)2
	Epsonite         -2.96     -4.84   -1.88  Mg(SO4):7H2O
	Ettringite-Fe   -32.13     22.40   54.53  Ca6Fe2(SO4)3(OH)12:26H2O
	Fayalite         -4.41     15.10   19.51  Fe2(SiO4)
	Fe(OH)2(cr)      -3.35      9.41   12.76  Fe(OH)2
	Fe(s)           -15.00      0.86   15.86  Fe
	FeO(s)           -3.95      9.42   13.37  FeO
	Ferrihydrite(am)  -1.87      0.67    2.54  Fe(OH)3
	Ferrosilite     -27.03      5.68   32.71  FeSiO3
	Ferryhydrite     -0.52      0.67    1.19  Fe(OH)3
	FeS(am)          -4.52     -7.47   -2.95  FeS
	Foshagite       -30.24     35.72   65.96  Ca4Si3O9(OH)2:0.5H2O
	Gaylussite       -5.88    -15.31   -9.43  CaNa2(CO3)2:5H2O
	Glaserite       -18.21    -25.82   -7.61  Na2K6(SO4)4
	Glauberite       -9.41     -7.44    1.97  Na2Ca(SO4)2
	Goethite          0.29      0.68    0.39  FeOOH
	Gypsum           -0.00     -4.61   -4.61  CaSO4:2H2O
	Gyrolite        -10.12     12.22   22.34  Ca2Si3O7.5(OH):2H2O
	H2(g)            -8.58     -8.58    0.00  H2
	H2O(g)           -1.51    -43.00  -41.49  H2O
	H2S(g)           -8.90    -16.90   -8.00  H2S
	Halite           -2.01     -0.42    1.59  NaCl
	HCl(g)          -13.44     -7.15    6.29  HCl
	Hematite          2.40      1.38   -1.02  Fe2O3
	Hexahydrite      -3.19     -4.83   -1.64  Mg(SO4):6H2O
	Hillebrandite   -17.13     19.72   36.85  Ca2SiO3(OH)2:0.17H2O
	Hydrophilite    -14.32     -2.55   11.77  CaCl2
	Jaffeite        -51.14     62.92  114.06  Ca6(Si2O7)(OH)6
	Jennite         -64.27     83.06  147.33  Ca9Si6O16(OH)10:6(H2O)
	K(cr)           -49.44      0.05   49.49  K
	K(OH)(s)        -20.27      4.33   24.60  K(OH)
	K-carbonate     -14.60    -11.57    3.03  K2CO3:1.5H2O
	K-trona         -15.98    -25.08   -9.10  K2NaH(CO3)2:2H2O
	K2CO3(cr)       -16.96    -11.55    5.41  K2CO3
	K2O(s)          -75.44      8.67   84.11  K2O
	Kainite          -7.40     -7.59   -0.19  KMgCl(SO4):3H2O
	Kalicinite       -5.83    -15.89  -10.06  KHCO3
	Lansfordite      -3.67     -8.71   -5.04  Mg(CO3):5H2O
	Lawrencite      -13.76     -4.87    8.89  FeCl2
	Leonhardtite     -3.91     -4.80   -0.89  MgSO4:4H2O
	Leonite          -8.47    -12.45   -3.98  K2Mg(SO4)2:4H2O
	Lepidocrocite    -0.07      0.68    0.75  FeOOH
	Mackinawite      -3.87     -7.47   -3.60  FeS
	Maghemite(disord)  -1.93      1.38    3.31  Fe2O3
	Maghemite(ord)   -2.14      1.38    3.52  Fe2O3
	Magnesite(nat)    0.27     -8.64   -8.91  MgCO3
	Magnesite(syn)   -0.54     -8.64   -8.10  Mg(CO3)
	Magnetite         0.39     10.80   10.41  Fe3O4
	Melanterite      -4.79     -7.00   -2.21  FeSO4:7H2O
	Mercallite      -10.59    -11.99   -1.40  KHSO4
	Mg(cr)          -76.76      3.02   79.78  Mg
	Mg(SO4)(s)      -13.84     -4.74    9.10  Mg(SO4)
	Mg(SO4):H2O(s)   -4.64     -4.76   -0.12  Mg(SO4):H2O
	Mg-oxychlorur   -10.09     15.94   26.03  Mg2Cl(OH)3:4H2O
	Mg5(CO3)4(OH)2:4H2O(s) -12.74    -23.05  -10.31  Mg5(CO3)4(OH)2:4H2O
	MgCl2(s)        -24.74     -2.71   22.03  MgCl2
	MgCl2:2H2O(s)   -15.64     -2.74   12.90  MgCl2:2H2O
	MgCl2:4H2O(s)   -10.21     -2.77    7.44  MgCl2:4H2O
	MgCl2:H2O(s)    -18.94     -2.72   16.22  MgCl2:H2O
	Mirabilite       -1.78     -3.01   -1.23  Na2SO4:10H2O
	Monosulfate-Fe  -33.75     31.85   65.60  Ca4Fe2(SO4)(OH)12:6H2O
	Na(cr)          -43.44      2.45   45.89  Na
	Na2(CO3)(cr)     -7.88     -6.76    1.12  Na2(CO3)
	Na2CO3:7H2O(s)   -6.40     -6.86   -0.46  Na2CO3:7H2O
	Na2O(cr)        -54.00     13.46   67.46  Na2O
	Nahcolite        -2.76    -13.50  -10.74  Na(HCO3)
	Natron           -6.08     -6.91   -0.83  Na2(CO3):10H2O
	Nesquehonite     -3.58     -8.68   -5.10  Mg(CO3):3H2O
	O2(g)           -65.95    -68.85   -2.90  O2
	Okenite          -4.95      4.23    9.18  CaSi2O5:2H2O
	Pentahydrite     -3.53     -4.81   -1.28  MgSO4:5H2O
	Periclase       -10.00     11.58   21.58  MgO
	Picromerite      -8.15    -12.48   -4.33  K2Mg(SO4)2:6H2O
	Pirssonite       -6.36    -15.27   -8.91  Na2Ca(CO3)2:2H2O
	Polyhalite       -7.84    -21.58  -13.74  K2MgCa2(SO4)4:2H2O
	Portlandite     -11.08     11.73   22.81  Ca(OH)2
	Pyrite            0.00    -15.79  -15.79  FeS2
	Pyrrhotite       -1.99     -7.58   -5.59  Fe0.87S
	Quartz            0.00     -3.74   -3.74  SiO2
	S(cr)            -6.17    -42.01  -35.84  S
	Si(cr)          -84.06    -20.87   63.19  Si
	Siderite          0.00    -10.80  -10.80  Fe(CO3)
	SiO2(am)         -1.03     -3.74   -2.71  SiO2
	SO2(g)          -19.57    -24.89   -5.32  SO2
	Sr(cr)          -97.65      1.14   98.79  Sr
	Sr(OH)2(s)      -17.82      9.69   27.51  Sr(OH)2
	Sr(OH)2:8H2O(s) -14.75      9.57   24.32  Sr(OH)2:8H2O
	Sr2SiO4(s)      -27.59     15.66   43.25  Sr2SiO4
	SrCl2(s)        -12.71     -4.59    8.12  SrCl2
	SrCl2:2H2O(s)    -8.09     -4.62    3.47  SrCl2:2H2O
	SrCl2:6H2O(s)    -6.28     -4.67    1.61  SrCl2:6H2O
	SrCl2:H2O(s)     -9.51     -4.60    4.91  SrCl2:H2O
	SrO(cr)         -32.28      9.70   41.98  SrO
	SrS(s)          -21.87     -7.19   14.68  SrS
	SrSiO3(s)        -7.20      5.96   13.16  SrSiO3
	Strontianite     -1.25    -10.52   -9.27  Sr(CO3)
	Sylvite          -3.68     -2.81    0.87  KCl
	Syngenite        -4.87    -12.32   -7.45  K2Ca(SO4)2:6H2O
	Tachyhydrite    -25.52     -8.14   17.38  Mg2CaCl6:12H2O
	Thermonatrite    -7.26     -6.78    0.48  Na2(CO3):H2O
	Thernardite      -2.50     -2.86   -0.36  Na2SO4
	Tobermorite-11A -29.40     36.18   65.58  Ca5Si6O16.5(OH):5H2O
	Tobermorite-14A -26.83     36.11   62.94  Ca5Si6O16.5(OH):10H2O
	Troilite         -2.16     -7.47   -5.31  FeS
	Trona            -8.91    -20.29  -11.38  Na3H(CO3)2:2H2O
	Truscottite     -39.82     37.26   77.08  Ca7Si12O29(OH)4:H2O
	Vaterite         -0.58     -8.48   -7.90  CaCO3
	Xonotlite       -43.35     47.99   91.34  Ca6Si6O17(OH)2


------------------
End of simulation.
------------------

------------------------------------
Reading input data for simulation 3.
------------------------------------

-----------
End of run.
-----------

