WARNING: Database file from DATABASE keyword is used; command line argument ignored.
   Input file: solid_solution_pz
  Output file: solid_solution_pz.out
Database file: ../database/pitzer.dat

------------------
Reading data base.
------------------

	SOLUTION_MASTER_SPECIES
	SOLUTION_SPECIES
	PHASES
	PITZER
	EXCHANGE_MASTER_SPECIES
	EXCHANGE_SPECIES
	SURFACE_MASTER_SPECIES
	SURFACE_SPECIES
	END
------------------------------------
Reading input data for simulation 1.
------------------------------------

	DATABASE ../database/pitzer.dat
	SELECTED_OUTPUT 101
	    file                 solid_solution_pz_101.sel
	USER_PUNCH 101
	    headings Mu SC
	    start
	10 PUNCH STR_F$(MU, 20, 12)
	20 PUNCH STR_F$(SC, 20, 10)
	    end
	PHASES
		Magnesite
		MgCO3 = CO3-2 + Mg+2
	        log_k           -10.480
	SOLUTION 1
		units umol/kgw
		pH 7.0
		Ca	10
		Mg	10
		C	40
	SOLID_SOLUTIONS	1
		Ca(x)Mg(1-x)CO3	
			component	Calcite		0 #1.0
			component	Magnesite	0 #0.03
	END
-------------------------------------------
Beginning of initial solution calculations.
-------------------------------------------

Initial solution 1.	

-----------------------------Solution composition------------------------------

	Elements           Molality       Moles

	C                 4.000e-05   4.000e-05
	Ca                1.000e-05   1.000e-05
	Mg                1.000e-05   1.000e-05

----------------------------Description of solution----------------------------

                                       pH  =   7.000    
                                       pe  =   4.000    
      Specific Conductance (µS/cm,  25°C)  = 3
                          Density (g/cm³)  =   0.99705
                               Volume (L)  =   1.00297
                        Activity of water  =   1.000
                 Ionic strength (mol/kgw)  =   5.655e-05
                       Mass of water (kg)  =   1.000e+00
                 Total alkalinity (eq/kg)  =   3.287e-05
                       Total CO2 (mol/kg)  =   4.000e-05
                         Temperature (°C)  =  25.00
                  Electrical balance (eq)  =   7.129e-06
 Percent error, 100*(Cat-|An|)/(Cat+|An|)  =   9.76
                               Iterations  =   3
                         Gamma iterations  =   2
                      Osmotic coefficient  =   0.99457
                         Density of water  =   0.99704
                                  Total H  = 1.110125e+02
                                  Total O  = 5.550633e+01

----------------------------Distribution of species----------------------------

                                                    MacInnes  MacInnes
                                MacInnes       Log       Log       Log    mole V
   Species          Molality    Activity  Molality  Activity     Gamma   cm³/mol

   OH-             1.021e-07   1.012e-07    -6.991    -6.995    -0.004     -4.13
   H+              1.009e-07   1.000e-07    -6.996    -7.000    -0.004      0.00
   H2O             5.551e+01   1.000e+00     1.744    -0.000     0.000     18.07
C(4)          4.000e-05
   HCO3-           3.284e-05   3.255e-05    -4.484    -4.487    -0.004     24.72
   CO2             7.146e-06   7.146e-06    -5.146    -5.146     0.000     34.43
   CO3-2           1.544e-08   1.491e-08    -7.811    -7.827    -0.015     -3.85
   MgCO3           1.220e-10   1.220e-10    -9.914    -9.914     0.000    -17.09
Ca            1.000e-05
   Ca+2            1.000e-05   9.658e-06    -5.000    -5.015    -0.015    -18.23
Mg            1.000e-05
   Mg+2            1.000e-05   9.656e-06    -5.000    -5.015    -0.015    -21.91
   MgOH+           1.512e-10   1.499e-10    -9.820    -9.824    -0.004     (0)  
   MgCO3           1.220e-10   1.220e-10    -9.914    -9.914     0.000    -17.09

------------------------------Saturation indices-------------------------------

  Phase               SI** log IAP   log K(298 K,   1 atm)

  Aragonite        -4.62    -12.84   -8.22  CaCO3
  Artinite        -13.18      6.48   19.66  Mg2CO3(OH)2:3H2O
  Brucite          -8.12    -19.00  -10.88  Mg(OH)2
  Calcite          -4.44    -12.84   -8.41  CaCO3
  CO2(g)           -3.68     -5.15   -1.47  CO2
  Dolomite         -8.60    -25.68  -17.09  CaMg(CO3)2
  H2O(g)           -1.50     -0.00    1.50  H2O
  Huntite         -20.25    -10.01   10.24  CaMg3(CO3)4
  Magnesite        -2.36    -12.84  -10.48  MgCO3
  Nesquehonite     -7.67    -12.84   -5.17  MgCO3:3H2O
  Portlandite     -13.81    -19.00   -5.19  Ca(OH)2

**For a gas, SI = log10(fugacity). Fugacity = pressure * phi / 1 atm.
  For ideal gases, phi = 1.

-----------------------------------------
Beginning of batch-reaction calculations.
-----------------------------------------

Reaction step 1.

Using solution 1.	
Using solid solution assemblage 1.	

--------------------------------Solid solutions--------------------------------


Solid solution                Component        Moles  Delta moles   Mole fract

Ca(x)Mg(1-x)CO3                             0.00e+00
                                Calcite     0.00e+00     0.00e+00     0.00e+00
                              Magnesite     0.00e+00     0.00e+00     0.00e+00

-----------------------------Solution composition------------------------------

	Elements           Molality       Moles

	C                 4.000e-05   4.000e-05
	Ca                1.000e-05   1.000e-05
	Mg                1.000e-05   1.000e-05

----------------------------Description of solution----------------------------

                                       pH  =   7.000      Charge balance
                                       pe  =   4.000      Adjusted to redox equilibrium
      Specific Conductance (µS/cm,  25°C)  = 3
                          Density (g/cm³)  =   0.99705
                               Volume (L)  =   1.00297
                        Activity of water  =   1.000
                 Ionic strength (mol/kgw)  =   5.655e-05
                       Mass of water (kg)  =   1.000e+00
                 Total alkalinity (eq/kg)  =   3.287e-05
                       Total CO2 (mol/kg)  =   4.000e-05
                         Temperature (°C)  =  25.00
                  Electrical balance (eq)  =   7.129e-06
 Percent error, 100*(Cat-|An|)/(Cat+|An|)  =   9.76
                               Iterations  =   1
                         Gamma iterations  =   1
                      Osmotic coefficient  =   0.99457
                         Density of water  =   0.99704
                                  Total H  = 1.110125e+02
                                  Total O  = 5.550633e+01

----------------------------Distribution of species----------------------------

                                                    MacInnes  MacInnes
                                MacInnes       Log       Log       Log    mole V
   Species          Molality    Activity  Molality  Activity     Gamma   cm³/mol

   OH-             1.021e-07   1.012e-07    -6.991    -6.995    -0.004     -4.13
   H+              1.009e-07   1.000e-07    -6.996    -7.000    -0.004      0.00
   H2O             5.551e+01   1.000e+00     1.744    -0.000     0.000     18.07
C(4)          4.000e-05
   HCO3-           3.284e-05   3.255e-05    -4.484    -4.487    -0.004     24.72
   CO2             7.146e-06   7.146e-06    -5.146    -5.146     0.000     34.43
   CO3-2           1.544e-08   1.491e-08    -7.811    -7.827    -0.015     -3.85
   MgCO3           1.220e-10   1.220e-10    -9.914    -9.914     0.000    -17.09
Ca            1.000e-05
   Ca+2            1.000e-05   9.658e-06    -5.000    -5.015    -0.015    -18.23
Mg            1.000e-05
   Mg+2            1.000e-05   9.656e-06    -5.000    -5.015    -0.015    -21.91
   MgOH+           1.512e-10   1.499e-10    -9.820    -9.824    -0.004     (0)  
   MgCO3           1.220e-10   1.220e-10    -9.914    -9.914     0.000    -17.09

------------------------------Saturation indices-------------------------------

  Phase               SI** log IAP   log K(298 K,   1 atm)

  Aragonite        -4.62    -12.84   -8.22  CaCO3
  Artinite        -13.18      6.48   19.66  Mg2CO3(OH)2:3H2O
  Brucite          -8.12    -19.00  -10.88  Mg(OH)2
  Calcite          -4.44    -12.84   -8.41  CaCO3
  CO2(g)           -3.68     -5.15   -1.47  CO2
  Dolomite         -8.60    -25.68  -17.09  CaMg(CO3)2
  H2O(g)           -1.50     -0.00    1.50  H2O
  Huntite         -20.25    -10.01   10.24  CaMg3(CO3)4
  Magnesite        -2.36    -12.84  -10.48  MgCO3
  Nesquehonite     -7.67    -12.84   -5.17  MgCO3:3H2O
  Portlandite     -13.81    -19.00   -5.19  Ca(OH)2

**For a gas, SI = log10(fugacity). Fugacity = pressure * phi / 1 atm.
  For ideal gases, phi = 1.

------------------
End of simulation.
------------------

------------------------------------
Reading input data for simulation 2.
------------------------------------

	USE solution 1
	USE solid_solution 1
	REACTION
		CaCO3	1
		10 mmol
	END	
-----------------------------------------
Beginning of batch-reaction calculations.
-----------------------------------------

Reaction step 1.

Using solution 1.	
Using solid solution assemblage 1.	
Using reaction 1.	

Reaction 1.	

	  1.000e-02 moles of the following reaction have been added:

	                 Relative
	Reactant            moles

	CaCO3                1.00000

	                 Relative
	Element             moles
	C                    1.00000
	Ca                   1.00000
	O                    3.00000

--------------------------------Solid solutions--------------------------------


Solid solution                Component        Moles  Delta moles   Mole fract

Ca(x)Mg(1-x)CO3                             9.89e-03
                                Calcite     9.88e-03     9.88e-03     9.99e-01
                              Magnesite     1.00e-05     1.00e-05     1.01e-03

-----------------------------Solution composition------------------------------

	Elements           Molality       Moles

	C                 1.506e-04   1.506e-04
	Ca                1.306e-04   1.306e-04
	Mg                1.153e-09   1.153e-09

----------------------------Description of solution----------------------------

                                       pH  =   9.811      Charge balance
                                       pe  =   4.000      Adjusted to redox equilibrium
      Specific Conductance (µS/cm,  25°C)  = 37
                          Density (g/cm³)  =   0.99706
                               Volume (L)  =   1.00296
                        Activity of water  =   1.000
                 Ionic strength (mol/kgw)  =   4.246e-04
                       Mass of water (kg)  =   1.000e+00
                 Total alkalinity (eq/kg)  =   2.541e-04
                       Total CO2 (mol/kg)  =   1.506e-04
                         Temperature (°C)  =  25.00
                  Electrical balance (eq)  =   7.129e-06
 Percent error, 100*(Cat-|An|)/(Cat+|An|)  =   1.38
                               Iterations  =  38
                         Gamma iterations  =   3
                      Osmotic coefficient  =   0.98077
                         Density of water  =   0.99704
                                  Total H  = 1.110125e+02
                                  Total O  = 5.550666e+01

----------------------------Distribution of species----------------------------

                                                    MacInnes  MacInnes
                                MacInnes       Log       Log       Log    mole V
   Species          Molality    Activity  Molality  Activity     Gamma   cm³/mol

   OH-             6.713e-05   6.546e-05    -4.173    -4.184    -0.011     -4.12
   H+              1.585e-10   1.546e-10    -9.800    -9.811    -0.011      0.00
   H2O             5.551e+01   1.000e+00     1.744    -0.000     0.000     18.07
C(4)          1.506e-04
   HCO3-           1.142e-04   1.116e-04    -3.942    -3.952    -0.010     24.74
   CO3-2           3.637e-05   3.305e-05    -4.439    -4.481    -0.042     -3.80
   CO2             3.787e-08   3.787e-08    -7.422    -7.422     0.000     34.43
   MgCO3           2.837e-11   2.837e-11   -10.547   -10.547     0.000    -17.09
Ca            1.306e-04
   Ca+2            1.306e-04   1.187e-04    -3.884    -3.926    -0.041    -18.18
Mg            1.153e-09
   Mg+2            1.114e-09   1.013e-09    -8.953    -8.994    -0.041    -21.86
   MgCO3           2.837e-11   2.837e-11   -10.547   -10.547     0.000    -17.09
   MgOH+           1.043e-11   1.017e-11   -10.982   -10.993    -0.011     (0)  

------------------------------Saturation indices-------------------------------

  Phase               SI** log IAP   log K(298 K,   1 atm)

  Aragonite        -0.19     -8.41   -8.22  CaCO3
  Artinite        -12.17      7.49   19.66  Mg2CO3(OH)2:3H2O
  Brucite          -6.48    -17.36  -10.88  Mg(OH)2
  Calcite          -0.00     -8.41   -8.41  CaCO3
  CO2(g)           -5.95     -7.42   -1.47  CO2
  Dolomite         -4.79    -21.88  -17.09  CaMg(CO3)2
  H2O(g)           -1.50     -0.00    1.50  H2O
  Huntite         -17.72     -7.48   10.24  CaMg3(CO3)4
  Magnesite        -3.00    -13.48  -10.48  MgCO3
  Nesquehonite     -8.31    -13.48   -5.17  MgCO3:3H2O
  Portlandite      -7.10    -12.29   -5.19  Ca(OH)2

**For a gas, SI = log10(fugacity). Fugacity = pressure * phi / 1 atm.
  For ideal gases, phi = 1.

------------------
End of simulation.
------------------

------------------------------------
Reading input data for simulation 3.
------------------------------------

-------------------------------
End of Run after 0.014 Seconds.
-------------------------------

