WARNING: Database file from DATABASE keyword is used; command line argument ignored.
   Input file: soln_vol
  Output file: soln_vol.out
Database file: ../database/phreeqc.dat

------------------
Reading data base.
------------------

	SOLUTION_MASTER_SPECIES
	SOLUTION_SPECIES
	PHASES
	EXCHANGE_MASTER_SPECIES
	EXCHANGE_SPECIES
	SURFACE_MASTER_SPECIES
	SURFACE_SPECIES
	RATES
	END
------------------------------------
Reading input data for simulation 1.
------------------------------------

	DATABASE ../database/phreeqc.dat
	SELECTED_OUTPUT 101
	    file                 soln_vol_101.sel
	USER_PUNCH 101
	    headings Mu SC
	    start
	10 PUNCH STR_F$(MU, 20, 12)
	20 PUNCH STR_F$(SC, 20, 10)
	    end
	SOLUTION 1
	K 1e3
	 Alkalinity 0.5e3
	 C(-4) 0.5e3
	 S 1e3
	USER_PRINT
	10 print 'Volume (L) =',(tot("H") * gfw("H") + tot("O") * gfw("O") + tot("K") * gfw("K") + tot("C") * gfw("C") + tot("S") * gfw("S") ) / rho / 1e3, soln_vol 
	END
-------------------------------------------
Beginning of initial solution calculations.
-------------------------------------------

Initial solution 1.	

----------------------------------User print-----------------------------------

Volume (L) =   1.0698e+00   1.0698e+00 

-----------------------------Solution composition------------------------------

	Elements           Molality       Moles

	Alkalinity        5.000e-01   5.000e-01
	C(-4)             5.000e-01   5.000e-01
	K                 1.000e+00   1.000e+00
	S                 1.000e+00   1.000e+00

----------------------------Description of solution----------------------------

                                       pH  =   7.000    
                                       pe  =   4.000    
      Specific Conductance (µS/cm,  25°C)  = 124642
                          Density (g/cm³)  =   1.09927
                               Volume (L)  =   1.06985
                        Viscosity (mPa s)  =   1.19110
                        Activity of water  =   0.955
                 Ionic strength (mol/kgw)  =   1.929e+00
                       Mass of water (kg)  =   1.000e+00
                    Total carbon (mol/kg)  =   1.054e+00
                       Total CO2 (mol/kg)  =   5.538e-01
                         Temperature (°C)  =  25.00
                  Electrical balance (eq)  =  -1.500e+00
 Percent error, 100*(Cat-|An|)/(Cat+|An|)  = -56.00
                               Iterations  =   7
                                  Total H  = 1.135105e+02
                                  Total O  = 6.111281e+01

---------------------------------Redox couples---------------------------------

	Redox couple             pe  Eh (volts)

	C(-4)/C(4)          -4.0746     -0.2410

----------------------------Distribution of species----------------------------

                                               Log       Log       Log    mole V
   Species          Molality    Activity  Molality  Activity     Gamma   cm³/mol

   OH-             1.812e-07   9.667e-08    -6.742    -7.015    -0.273     -0.72
   H+              1.376e-07   1.000e-07    -6.861    -7.000    -0.139      0.00
   H2O             5.551e+01   9.551e-01     1.744    -0.020     0.000     18.07
C(-4)         5.000e-01
   CH4             5.000e-01   7.797e-01    -0.301    -0.108     0.193     35.46
C(4)          5.538e-01
   HCO3-           4.981e-01   3.110e-01    -0.303    -0.507    -0.205     28.96
   CO2             5.461e-02   7.322e-02    -1.263    -1.135     0.127     34.43
   CO3-2           9.594e-04   1.459e-04    -3.018    -3.836    -0.818      2.48
   (CO2)2          6.310e-05   9.840e-05    -4.200    -4.007     0.193     68.87
H(0)          9.080e-26
   H2              4.540e-26   7.079e-26   -25.343   -25.150     0.193     28.61
K             1.000e+00
   K+              5.892e-01   3.361e-01    -0.230    -0.474    -0.244     10.30
   KSO4-           4.108e-01   8.341e-02    -0.386    -1.079    -0.692     36.61
O(0)          0.000e+00
   O2              0.000e+00   0.000e+00   -42.313   -42.120     0.193     30.40
S(-2)         0.000e+00
   HS-             0.000e+00   0.000e+00   -62.168   -62.441    -0.273     21.88
   H2S             0.000e+00   0.000e+00   -62.692   -62.499     0.193     36.27
   S-2             0.000e+00   0.000e+00   -67.495   -68.359    -0.864     (0)  
   (H2S)2          0.000e+00   0.000e+00  -126.469  -126.276     0.193     30.09
S(6)          1.000e+00
   SO4-2           5.892e-01   6.753e-02    -0.230    -1.170    -0.941     19.91
   KSO4-           4.108e-01   8.341e-02    -0.386    -1.079    -0.692     36.61
   HSO4-           6.586e-07   6.566e-07    -6.181    -6.183    -0.001     41.39

------------------------------Saturation indices-------------------------------

  Phase               SI** log IAP   log K(298 K,   1 atm)

  Arcanite         -0.24     -2.12   -1.88  K2SO4
  CH4(g)            2.69     -0.11   -2.80  CH4
  CO2(g)            0.33     -1.14   -1.47  CO2
  H2(g)           -22.05    -25.15   -3.10  H2
  H2O(g)           -1.52     -0.02    1.50  H2O
  H2S(g)          -61.50    -69.44   -7.94  H2S
  O2(g)           -39.23    -42.12   -2.89  O2
  Sulfur          -45.38    -40.50    4.88  S

**For a gas, SI = log10(fugacity). Fugacity = pressure * phi / 1 atm.
  For ideal gases, phi = 1.

------------------
End of simulation.
------------------

------------------------------------
Reading input data for simulation 2.
------------------------------------

	SOLUTION 1
	K 1e3
	 C(4) .5439e3
	 C(-4) 0.5e3
	 S 1e3
-------------------------------------------
Beginning of initial solution calculations.
-------------------------------------------

Initial solution 1.	

----------------------------------User print-----------------------------------

Volume (L) =   1.0695e+00   1.0695e+00 

-----------------------------Solution composition------------------------------

	Elements           Molality       Moles

	C(-4)             5.000e-01   5.000e-01
	C(4)              5.439e-01   5.439e-01
	K                 1.000e+00   1.000e+00
	S                 1.000e+00   1.000e+00

----------------------------Description of solution----------------------------

                                       pH  =   7.000    
                                       pe  =   4.000    
      Specific Conductance (µS/cm,  25°C)  = 124515
                          Density (g/cm³)  =   1.09903
                               Volume (L)  =   1.06954
                        Viscosity (mPa s)  =   1.18961
                        Activity of water  =   0.955
                 Ionic strength (mol/kgw)  =   1.925e+00
                       Mass of water (kg)  =   1.000e+00
                 Total alkalinity (eq/kg)  =   4.911e-01
                       Total CO2 (mol/kg)  =   5.439e-01
                         Temperature (°C)  =  25.00
                  Electrical balance (eq)  =  -1.491e+00
 Percent error, 100*(Cat-|An|)/(Cat+|An|)  = -55.85
                               Iterations  =   7
                                  Total H  = 1.135016e+02
                                  Total O  = 6.108413e+01

---------------------------------Redox couples---------------------------------

	Redox couple             pe  Eh (volts)

	C(-4)/C(4)          -4.0756     -0.2411

----------------------------Distribution of species----------------------------

                                               Log       Log       Log    mole V
   Species          Molality    Activity  Molality  Activity     Gamma   cm³/mol

   OH-             1.811e-07   9.669e-08    -6.742    -7.015    -0.273     -0.73
   H+              1.376e-07   1.000e-07    -6.861    -7.000    -0.139      0.00
   H2O             5.551e+01   9.552e-01     1.744    -0.020     0.000     18.07
C(-4)         5.000e-01
   CH4             5.000e-01   7.789e-01    -0.301    -0.109     0.193     35.46
C(4)          5.439e-01
   HCO3-           4.892e-01   3.055e-01    -0.311    -0.515    -0.204     28.96
   CO2             5.367e-02   7.191e-02    -1.270    -1.143     0.127     34.43
   CO3-2           9.418e-04   1.433e-04    -3.026    -3.844    -0.818      2.47
   (CO2)2          6.092e-05   9.490e-05    -4.215    -4.023     0.193     68.87
H(0)          9.089e-26
   H2              4.545e-26   7.079e-26   -25.343   -25.150     0.193     28.61
K             1.000e+00
   K+              5.893e-01   3.361e-01    -0.230    -0.473    -0.244     10.30
   KSO4-           4.107e-01   8.354e-02    -0.386    -1.078    -0.692     36.60
O(0)          0.000e+00
   O2              0.000e+00   0.000e+00   -42.312   -42.120     0.193     30.40
S(-2)         0.000e+00
   HS-             0.000e+00   0.000e+00   -62.168   -62.440    -0.273     21.88
   H2S             0.000e+00   0.000e+00   -62.691   -62.499     0.193     36.27
   S-2             0.000e+00   0.000e+00   -67.495   -68.358    -0.863     (0)  
   (H2S)2          0.000e+00   0.000e+00  -126.468  -126.276     0.193     30.09
S(6)          1.000e+00
   SO4-2           5.893e-01   6.762e-02    -0.230    -1.170    -0.940     19.91
   KSO4-           4.107e-01   8.354e-02    -0.386    -1.078    -0.692     36.60
   HSO4-           6.602e-07   6.574e-07    -6.180    -6.182    -0.002     41.39

------------------------------Saturation indices-------------------------------

  Phase               SI** log IAP   log K(298 K,   1 atm)

  Arcanite         -0.24     -2.12   -1.88  K2SO4
  CH4(g)            2.69     -0.11   -2.80  CH4
  CO2(g)            0.32     -1.14   -1.47  CO2
  H2(g)           -22.05    -25.15   -3.10  H2
  H2O(g)           -1.52     -0.02    1.50  H2O
  H2S(g)          -61.50    -69.44   -7.94  H2S
  O2(g)           -39.23    -42.12   -2.89  O2
  Sulfur          -45.38    -40.50    4.88  S

**For a gas, SI = log10(fugacity). Fugacity = pressure * phi / 1 atm.
  For ideal gases, phi = 1.

------------------
End of simulation.
------------------

------------------------------------
Reading input data for simulation 3.
------------------------------------

