WARNING: Database file from DATABASE keyword is used; command line argument ignored.
   Input file: species_formula
  Output file: species_formula.out
Database file: ../database/phreeqc.dat

------------------
Reading data base.
------------------

	SOLUTION_MASTER_SPECIES
	SOLUTION_SPECIES
	PHASES
	EXCHANGE_MASTER_SPECIES
	EXCHANGE_SPECIES
	SURFACE_MASTER_SPECIES
	SURFACE_SPECIES
	RATES
	END
------------------------------------
Reading input data for simulation 1.
------------------------------------

	DATABASE ../database/phreeqc.dat
	SELECTED_OUTPUT 101
	    file                 species_formula_101.sel
	USER_PUNCH 101
	    headings Mu SC
	    start
	10 PUNCH STR_F$(MU, 20, 12)
	20 PUNCH STR_F$(SC, 20, 10)
	    end
	SOLUTION 1
		Na	1
		Cl	1
		Al	2
		S(6)	3
	END
-------------------------------------------
Beginning of initial solution calculations.
-------------------------------------------

Initial solution 1.	

-----------------------------Solution composition------------------------------

	Elements           Molality       Moles

	Al                2.000e-03   2.000e-03
	Cl                1.000e-03   1.000e-03
	Na                1.000e-03   1.000e-03
	S(6)              3.000e-03   3.000e-03

----------------------------Description of solution----------------------------

                                       pH  =   7.000    
                                       pe  =   4.000    
      Specific Conductance (µS/cm,  25°C)  = 537
                          Density (g/cm³)  =   0.99751
                               Volume (L)  =   1.00303
                        Activity of water  =   1.000
                 Ionic strength (mol/kgw)  =   7.937e-03
                       Mass of water (kg)  =   1.000e+00
                 Total alkalinity (eq/kg)  =   7.775e-03
                         Temperature (°C)  =  25.00
                  Electrical balance (eq)  =  -7.775e-03
 Percent error, 100*(Cat-|An|)/(Cat+|An|)  = -78.60
                               Iterations  =   8
                                  Total H  = 1.110202e+02
                                  Total O  = 5.552599e+01

----------------------------Distribution of species----------------------------

                                               Log       Log       Log    mole V
   Species          Molality    Activity  Molality  Activity     Gamma   cm³/mol

   OH-             1.113e-07   1.012e-07    -6.954    -6.995    -0.041     -4.05
   H+              1.086e-07   1.000e-07    -6.964    -7.000    -0.036      0.00
   H2O             5.551e+01   9.999e-01     1.744    -0.000     0.000     18.07
Al            2.000e-03
   Al(OH)4-        1.844e-03   1.681e-03    -2.734    -2.774    -0.040     (0)  
   Al(OH)3         8.902e-05   8.919e-05    -4.050    -4.050     0.001     (0)  
   Al(OH)2+        6.626e-05   6.054e-05    -4.179    -4.218    -0.039     (0)  
   AlOH+2          1.109e-06   7.725e-07    -5.955    -6.112    -0.157    -27.58
   AlSO4+          5.594e-08   5.100e-08    -7.252    -7.292    -0.040     (0)  
   Al+3            1.639e-08   7.778e-09    -7.785    -8.109    -0.324    -41.93
   Al(SO4)2-       3.669e-09   3.345e-09    -8.435    -8.476    -0.040     (0)  
   AlHSO4+2        6.568e-16   4.523e-16   -15.183   -15.345    -0.162     (0)  
Cl            1.000e-03
   Cl-             1.000e-03   9.100e-04    -3.000    -3.041    -0.041     18.13
H(0)          1.413e-25
   H2              7.067e-26   7.079e-26   -25.151   -25.150     0.001     28.61
Na            1.000e-03
   Na+             9.897e-04   9.028e-04    -3.004    -3.044    -0.040     -1.39
   NaSO4-          1.027e-05   9.383e-06    -4.988    -5.028    -0.039     14.23
   NaOH            9.120e-21   9.136e-21   -20.040   -20.039     0.001     (0)  
O(0)          0.000e+00
   O2              0.000e+00   0.000e+00   -42.081   -42.080     0.001     30.40
S(6)          3.000e-03
   SO4-2           2.990e-03   2.074e-03    -2.524    -2.683    -0.159     14.73
   NaSO4-          1.027e-05   9.383e-06    -4.988    -5.028    -0.039     14.23
   AlSO4+          5.594e-08   5.100e-08    -7.252    -7.292    -0.040     (0)  
   HSO4-           2.213e-08   2.016e-08    -7.655    -7.695    -0.041     40.33
   Al(SO4)2-       3.669e-09   3.345e-09    -8.435    -8.476    -0.040     (0)  
   AlHSO4+2        6.568e-16   4.523e-16   -15.183   -15.345    -0.162     (0)  

------------------------------Saturation indices-------------------------------

  Phase               SI** log IAP   log K(298 K,   1 atm)

  Al(OH)3(a)        2.09     12.89   10.80  Al(OH)3
  Gibbsite          4.78     12.89    8.11  Al(OH)3
  H2(g)           -22.05    -25.15   -3.10  H2
  H2O(g)           -1.50     -0.00    1.50  H2O
  Halite           -7.66     -6.09    1.57  NaCl
  O2(g)           -39.19    -42.08   -2.89  O2

**For a gas, SI = log10(fugacity). Fugacity = pressure * phi / 1 atm.
  For ideal gases, phi = 1.

------------------
End of simulation.
------------------

------------------------------------
Reading input data for simulation 2.
------------------------------------

	EXCHANGE 1
		CaX2 0.5
	END
------------------
End of simulation.
------------------

------------------------------------
Reading input data for simulation 3.
------------------------------------

	SURFACE 1
		Hfo_wOH  .01 600 1
	END
------------------
End of simulation.
------------------

------------------------------------
Reading input data for simulation 4.
------------------------------------

	USE solution 1
	USE exchange 1
	USE surface 1
	USER_PRINT
	10 t = SYS("aq", count, name$, type$, moles)
	20 for i = 1 to count
	30   ty$ = SPECIES_FORMULA(name$(i), count_s, elt$, coef)
	40   print pad(name$(i), 15), pad(type$(i), 5), str_e$(moles(i), 15,2), "   ", ty$
	50   for j = 1 to count_s
	60     print pad(blank$, 5), pad(elt$(j),5), str_f$(coef(j), 5, 0)
	70   next j
	80 next i
	110 t = SYS("ex", count, name$, type$, moles)
	120 for i = 1 to count
	130   ty$ = SPECIES_FORMULA(name$(i), count_s, elt$, coef)
	140   PRINT pad(name$(i), 15), pad(type$(i), 5), str_e$(moles(i), 15,2), "   ", ty$
	145   f = EQ_FRAC(name$(i), equiv, ex_name$)
	147   PRINT "      equivalent fraction:", f, MOL(name$(i))*equiv/TOT(ex_name$), ex_name$, equiv, MOL(name$(i)), TOT(ex_name$)
	150   for j = 1 to count_s
	160     PRINT PAD(blank$, 5), PAD(elt$(j),5), STR_F$(coef(j), 5, 0)
	170   next j
	180 next i
	210 t = SYS("surf", count, name$, type$, moles)
	220 for i = 1 to count
	230   ty$ = SPECIES_FORMULA(name$(i), count_s, elt$, coef)
	240   PRINT pad(name$(i), 15), pad(type$(i), 5), str_e$(moles(i), 15,2), "   ", ty$
	245   f = EQ_FRAC(name$(i), equiv, ex_name$)
	247   PRINT "      equivalent fraction:", f, MOL(name$(i))*equiv/TOT(ex_name$), ex_name$, equiv, MOL(name$(i)), TOT(ex_name$)
	250   for j = 1 to count_s
	260     PRINT PAD(blank$, 5), PAD(elt$(j),5), STR_F$(coef(j), 5, 0)
	270   next j
	280 next i
	300 n$ = "AbX4"
	310 ty$ = SPECIES_FORMULA$(n$, count_s, elt$, coef)
	320 PRINT n$, ty$, count_s
	400 f = EQ_FRAC(n$, equiv, ex_name$)
	410 PRINT n$, f, equiv, ex_name$
	420 n$ = "AlOH4-"
	430 f = EQ_FRAC(n$, equiv, ex_name$)
	440 PRINT n$, f, equiv, "/" + ex_name$ + "/"
-----------------------------------------
Beginning of batch-reaction calculations.
-----------------------------------------

Reaction step 1.

Using solution 1.	
Using exchange 1.	
Using surface 1.	

----------------------------------User print-----------------------------------

SO4-2           aq           2.72e-03     aq 
      O         4 
      S         1 
      charge    -2 
Al(OH)4-        aq           1.98e-03     aq 
      Al        1 
      H         4 
      O         4 
      charge    -1 
Cl-             aq           1.00e-03     aq 
      Cl        1 
      charge    -1 
Ca+2            aq           2.99e-04     aq 
      Ca        1 
      charge     2 
CaSO4           aq           7.08e-05     aq 
      Ca        1 
      O         4 
      S         1 
      charge     0 
Na+             aq           4.16e-05     aq 
      Na        1 
      charge     1 
Al(OH)3         aq           1.26e-05     aq 
      Al        1 
      H         3 
      O         3 
      charge     0 
Al(OH)2+        aq           1.22e-06     aq 
      Al        1 
      H         2 
      O         2 
      charge     1 
OH-             aq           8.47e-07     aq 
      H         1 
      O         1 
      charge    -1 
NaSO4-          aq           3.96e-07     aq 
      Na        1 
      O         4 
      S         1 
      charge    -1 
H+              aq           1.42e-08     aq 
      H         1 
      charge     1 
CaOH+           aq           2.91e-09     aq 
      Ca        1 
      H         1 
      O         1 
      charge     1 
AlOH+2          aq           2.67e-09     aq 
      Al        1 
      H         1 
      O         1 
      charge     2 
HSO4-           aq           2.66e-09     aq 
      H         1 
      O         4 
      S         1 
      charge    -1 
AlSO4+          aq           1.63e-11     aq 
      Al        1 
      O         4 
      S         1 
      charge     1 
CaHSO4+         aq           6.69e-12     aq 
      Ca        1 
      H         1 
      O         4 
      S         1 
      charge     1 
Al+3            aq           5.14e-12     aq 
      Al        1 
      charge     3 
Al(SO4)2-       aq           9.80e-13     aq 
      Al        1 
      O         8 
      S         2 
      charge    -1 
H2              aq           9.19e-16     aq 
      H         2 
      charge     0 
AlHSO4+2        aq           2.49e-20     aq 
      Al        1 
      H         1 
      O         4 
      S         1 
      charge     2 
NaOH            aq           2.93e-21     aq 
      H         1 
      Na        1 
      O         1 
      charge     0 
HS-             aq           3.50e-25     aq 
      H         1 
      S         1 
      charge    -1 
H2S             aq           3.65e-26     aq 
      H         2 
      S         1 
      charge     0 
S-2             aq           4.20e-30     aq 
      S         1 
      charge    -2 
O2              aq           0.00e+00     aq 
      O         2 
      charge     0 
CaX2            ex           5.00e-01     ex 
      equivalent fraction:   9.9903e-01   9.9903e-01 X            2   4.9952e-01   1.0000e+00 
      Ca        1 
      X         2 
      charge     0 
NaX             ex           9.58e-04     ex 
      equivalent fraction:   9.5800e-04   9.5800e-04 X            1   9.5800e-04   1.0000e+00 
      Na        1 
      X         1 
      charge     0 
AlOHX2          ex           3.52e-06     ex 
      equivalent fraction:   7.0399e-06   7.0399e-06 X            2   3.5200e-06   1.0000e+00 
      Al        1 
      H         1 
      O         1 
      X         2 
      charge     0 
AlX3            ex           5.37e-08     ex 
      equivalent fraction:   1.6116e-07   1.6116e-07 X            3   5.3719e-08   1.0000e+00 
      Al        1 
      X         3 
      charge     0 
Hfo_wOH         surf         7.42e-03     surf 
      equivalent fraction:   7.4155e-01   7.4155e-01 Hfo_w            1   7.4155e-03   1.0000e-02 
      H         1 
      Hfo_w     1 
      O         1 
      charge     0 
Hfo_wOH2+       surf         1.28e-03     surf 
      equivalent fraction:   1.2806e-01   1.2806e-01 Hfo_w            1   1.2806e-03   1.0000e-02 
      H         2 
      Hfo_w     1 
      O         1 
      charge     1 
Hfo_wO-         surf         9.84e-04     surf 
      equivalent fraction:   9.8371e-02   9.8371e-02 Hfo_w            1   9.8371e-04   1.0000e-02 
      Hfo_w     1 
      O         1 
      charge    -1 
Hfo_wOHSO4-2    surf         1.91e-04     surf 
      equivalent fraction:   1.9053e-02   1.9053e-02 Hfo_w            1   1.9053e-04   1.0000e-02 
      H         1 
      Hfo_w     1 
      O         5 
      S         1 
      charge    -2 
Hfo_wOCa+       surf         1.13e-04     surf 
      equivalent fraction:   1.1316e-02   1.1316e-02 Hfo_w            1   1.1316e-04   1.0000e-02 
      Ca        1 
      Hfo_w     1 
      O         1 
      charge     1 
Hfo_wSO4-       surf         1.65e-05     surf 
      equivalent fraction:   1.6492e-03   1.6492e-03 Hfo_w            1   1.6492e-05   1.0000e-02 
      Hfo_w     1 
      O         4 
      S         1 
      charge    -1 
AbX4 none            0 
AbX4            0            0  
AlOH4-            0            0 // 

------------------------------Surface composition------------------------------

Diffuse Double Layer Surface-Complexation Model

Hfo           
	  1.250e-05  Surface charge, eq
	  2.011e-03  sigma, C/m²
	  1.007e-02  psi, V
	 -3.919e-01  -F*psi/RT
	  6.757e-01  exp(-F*psi/RT)
	  6.000e+02  specific area, m²/g
	  6.000e+02  m² for   1.000e+00 g


Hfo_w         
	  1.000e-02  moles
	                                   Mole                     Log
	Species               Moles    Fraction    Molality    Molality

	Hfo_wOH           7.416e-03       0.742   7.416e-03      -2.130
	Hfo_wOH2+         1.281e-03       0.128   1.281e-03      -2.893
	Hfo_wO-           9.837e-04       0.098   9.837e-04      -3.007
	Hfo_wOHSO4-2      1.905e-04       0.019   1.905e-04      -3.720
	Hfo_wOCa+         1.132e-04       0.011   1.132e-04      -3.946
	Hfo_wSO4-         1.649e-05       0.002   1.649e-05      -4.783

-----------------------------Exchange composition------------------------------

X                1.000e+00 mol

	                               Equiv-    Equivalent      Log 
	Species             Moles      alents      Fraction     Gamma

	CaX2              4.995e-01   9.990e-01   9.990e-01    -0.154
	NaX               9.580e-04   9.580e-04   9.580e-04    -0.039
	AlOHX2            3.520e-06   7.040e-06   7.040e-06     0.040
	AlX3              5.372e-08   1.612e-07   1.612e-07    -0.317

-----------------------------Solution composition------------------------------

	Elements           Molality       Moles

	Al                1.996e-03   1.996e-03
	Ca                3.694e-04   3.694e-04
	Cl                1.000e-03   1.000e-03
	Na                4.200e-05   4.200e-05
	S                 2.793e-03   2.793e-03

----------------------------Description of solution----------------------------

                                       pH  =   7.883      Charge balance
                                       pe  =  -1.940      Adjusted to redox equilibrium
      Specific Conductance (µS/cm,  25°C)  = 486
                          Density (g/cm³)  =   0.99750
                               Volume (L)  =   1.00302
                        Activity of water  =   1.000
                 Ionic strength (mol/kgw)  =   7.554e-03
                       Mass of water (kg)  =   1.000e+00
                 Total alkalinity (eq/kg)  =   7.972e-03
                         Temperature (°C)  =  25.00
                  Electrical balance (eq)  =  -7.787e-03
 Percent error, 100*(Cat-|An|)/(Cat+|An|)  = -85.88
                               Iterations  =  26
                                  Total H  = 1.110200e+02
                                  Total O  = 5.552518e+01

----------------------------Distribution of species----------------------------

                                               Log       Log       Log    mole V
   Species          Molality    Activity  Molality  Activity     Gamma   cm³/mol

   OH-             8.473e-07   7.722e-07    -6.072    -6.112    -0.040     -4.05
   H+              1.422e-08   1.311e-08    -7.847    -7.883    -0.035      0.00
   H2O             5.551e+01   9.999e-01     1.744    -0.000     0.000     18.07
Al            1.996e-03
   Al(OH)4-        1.983e-03   1.811e-03    -2.703    -2.742    -0.039     (0)  
   Al(OH)3         1.257e-05   1.260e-05    -4.901    -4.900     0.001     (0)  
   Al(OH)2+        1.224e-06   1.121e-06    -5.912    -5.951    -0.038     (0)  
   AlOH+2          2.669e-09   1.874e-09    -8.574    -8.727    -0.154    -27.59
   AlSO4+          1.629e-11   1.488e-11   -10.788   -10.827    -0.039     (0)  
   Al+3            5.136e-12   2.473e-12   -11.289   -11.607    -0.317    -41.94
   Al(SO4)2-       9.802e-13   8.954e-13   -12.009   -12.048    -0.039     (0)  
   AlHSO4+2        2.491e-20   1.729e-20   -19.604   -19.762    -0.159     (0)  
Ca            3.694e-04
   Ca+2            2.987e-04   2.095e-04    -3.525    -3.679    -0.154    -17.97
   CaSO4           7.078e-05   7.090e-05    -4.150    -4.149     0.001      7.50
   CaOH+           2.906e-09   2.653e-09    -8.537    -8.576    -0.040     (0)  
   CaHSO4+         6.692e-12   6.108e-12   -11.174   -11.214    -0.040     (0)  
Cl            1.000e-03
   Cl-             1.000e-03   9.119e-04    -3.000    -3.040    -0.040     18.13
H(0)          1.838e-15
   H2              9.191e-16   9.207e-16   -15.037   -15.036     0.001     28.61
Na            4.200e-05
   Na+             4.161e-05   3.803e-05    -4.381    -4.420    -0.039     -1.40
   NaSO4-          3.962e-07   3.626e-07    -6.402    -6.441    -0.038     14.21
   NaOH            2.931e-21   2.936e-21   -20.533   -20.532     0.001     (0)  
O(0)          0.000e+00
   O2              0.000e+00   0.000e+00   -62.309   -62.308     0.001     30.40
S(-2)         3.863e-25
   HS-             3.498e-25   3.188e-25   -24.456   -24.496    -0.040     20.66
   H2S             3.647e-26   3.653e-26   -25.438   -25.437     0.001     37.16
   S-2             4.200e-30   2.938e-30   -29.377   -29.532    -0.155     (0)  
S(6)          2.793e-03
   SO4-2           2.722e-03   1.903e-03    -2.565    -2.721    -0.155     14.72
   CaSO4           7.078e-05   7.090e-05    -4.150    -4.149     0.001      7.50
   NaSO4-          3.962e-07   3.626e-07    -6.402    -6.441    -0.038     14.21
   HSO4-           2.656e-09   2.425e-09    -8.576    -8.615    -0.040     40.33
   AlSO4+          1.629e-11   1.488e-11   -10.788   -10.827    -0.039     (0)  
   CaHSO4+         6.692e-12   6.108e-12   -11.174   -11.214    -0.040     (0)  
   Al(SO4)2-       9.802e-13   8.954e-13   -12.009   -12.048    -0.039     (0)  
   AlHSO4+2        2.491e-20   1.729e-20   -19.604   -19.762    -0.159     (0)  

------------------------------Saturation indices-------------------------------

  Phase               SI** log IAP   log K(298 K,   1 atm)

  Al(OH)3(a)        1.24     12.04   10.80  Al(OH)3
  Anhydrite        -2.12     -6.40   -4.28  CaSO4
  Gibbsite          3.93     12.04    8.11  Al(OH)3
  Gypsum           -1.82     -6.40   -4.58  CaSO4:2H2O
  H2(g)           -11.93    -15.04   -3.10  H2
  H2O(g)           -1.50     -0.00    1.50  H2O
  H2S(g)          -24.39    -32.38   -7.99  H2S
  Halite           -9.03     -7.46    1.57  NaCl
  O2(g)           -59.42    -62.31   -2.89  O2
  Sulfur          -18.43    -13.55    4.88  S

**For a gas, SI = log10(fugacity). Fugacity = pressure * phi / 1 atm.
  For ideal gases, phi = 1.

------------------
End of simulation.
------------------

------------------------------------
Reading input data for simulation 5.
------------------------------------

-------------------------------
End of Run after 0.012 Seconds.
-------------------------------

