WARNING: Database file from DATABASE keyword is used; command line argument ignored.
   Input file: SrSO4_tc
  Output file: SrSO4_tc.out
Database file: ../database/phreeqc.dat

------------------
Reading data base.
------------------

	SOLUTION_MASTER_SPECIES
	SOLUTION_SPECIES
	PHASES
	EXCHANGE_MASTER_SPECIES
	EXCHANGE_SPECIES
	SURFACE_MASTER_SPECIES
	SURFACE_SPECIES
	RATES
	END
------------------------------------
Reading input data for simulation 1.
------------------------------------

	DATABASE ../database/phreeqc.dat
	SELECTED_OUTPUT 101
	    file                 SrSO4_tc_101.sel
	USER_PUNCH 101
	    headings Mu SC
	    start
	10 PUNCH STR_F$(MU, 20, 12)
	20 PUNCH STR_F$(SC, 20, 10)
	    end
	SOLUTION 1
	 pH 7 charge
	 temp 25
	 pressure 200
	EQUILIBRIUM_PHASES
	 Celestite
	REACTION_TEMPERATURE
	 25 250 in 10
	USER_GRAPH
	 axis_titles "Temperature / oC" "Celestitte solubility / M"
	  1 DATA 7.556e-04, 6.469e-04, 3.901e-04, 2.568e-04, 1.580e-04,  5.926e-05
	  2 DIM d(6)
	  3 read d(1), d(2), d(3), d(4), d(5), d(6)
	  4 DATA 25, 50, 100, 150, 200, 250
	  5 DIM t(6)
	  6 read t(1), t(2), t(3), t(4), t(5), t(6)
	 10 plot_xy tc, tot("Sr"), color = Red, symbol = None
	 20 if step_no > 6 then goto 30
	 22 plot_xy t(step_no), d(step_no), line_width = 0, color = Red
	 30 end
	END
-------------------------------------------
Beginning of initial solution calculations.
-------------------------------------------

Initial solution 1.	

-----------------------------Solution composition------------------------------

	Elements           Molality       Moles

	Pure water     

----------------------------Description of solution----------------------------

                                       pH  =   6.960      Charge balance
                                       pe  =   4.000    
      Specific Conductance (µS/cm,  25°C)  = 0
                          Density (g/cm³)  =   1.00591
                               Volume (L)  =   0.99413
                        Activity of water  =   1.000
                 Ionic strength (mol/kgw)  =   1.098e-07
                       Mass of water (kg)  =   1.000e+00
                 Total alkalinity (eq/kg)  =  -2.250e-22
                    Total carbon (mol/kg)  =   0.000e+00
                       Total CO2 (mol/kg)  =   0.000e+00
                         Temperature (°C)  =  25.00
                           Pressure (atm)  = 200.00
                  Electrical balance (eq)  =   2.250e-22
 Percent error, 100*(Cat-|An|)/(Cat+|An|)  =   0.00
                               Iterations  =   3
                                  Total H  = 1.110124e+02
                                  Total O  = 5.550622e+01

----------------------------Distribution of species----------------------------

                                               Log       Log       Log    mole V
   Species          Molality    Activity  Molality  Activity     Gamma   cm³/mol

   H+              1.098e-07   1.097e-07    -6.960    -6.960    -0.000      0.00
   OH-             1.098e-07   1.097e-07    -6.960    -6.960    -0.000     -3.43
   H2O             5.551e+01   1.000e+00     1.744    -0.000     0.000     17.91
H(0)          1.352e-25
   H2              6.760e-26   6.760e-26   -25.170   -25.170     0.000     28.52
O(0)          0.000e+00
   O2              0.000e+00   0.000e+00   -42.221   -42.221     0.000     30.12

------------------------------Saturation indices-------------------------------

  Phase               SI** log IAP   log K(298 K, 200 atm)

  H2(g)           -21.97    -25.17   -3.20  H2
  H2O(g)           -1.44     -0.00    1.44  H2O
  O2(g)           -39.22    -42.22   -3.00  O2

**For a gas, SI = log10(fugacity). Fugacity = pressure * phi / 1 atm.
  For ideal gases, phi = 1.

-----------------------------------------
Beginning of batch-reaction calculations.
-----------------------------------------

Reaction step 1.

Using solution 1.	
Using pure phase assemblage 1.	
Using temperature 1.	

-------------------------------Phase assemblage--------------------------------

                                                      Moles in assemblage
Phase               SI  log IAP  log K(T, P)   Initial       Final       Delta

Celestite         0.00    -6.49     -6.49    1.000e+01   9.999e+00  -7.694e-04

-----------------------------Solution composition------------------------------

	Elements           Molality       Moles

	S                 7.694e-04   7.694e-04
	Sr                7.694e-04   7.694e-04

----------------------------Description of solution----------------------------

                                       pH  =   6.968      Charge balance
                                       pe  =  -1.518      Adjusted to redox equilibrium
      Specific Conductance (µS/cm,  25°C)  = 184
                          Density (g/cm³)  =   1.00605
                               Volume (L)  =   0.99413
                        Activity of water  =   1.000
                 Ionic strength (mol/kgw)  =   2.873e-03
                       Mass of water (kg)  =   1.000e+00
                 Total alkalinity (eq/kg)  =   7.460e-20
                    Total carbon (mol/kg)  =   0.000e+00
                       Total CO2 (mol/kg)  =   0.000e+00
                         Temperature (°C)  =  25.00
                           Pressure (atm)  = 200.00
                  Electrical balance (eq)  =   2.936e-15
 Percent error, 100*(Cat-|An|)/(Cat+|An|)  =   0.00
                               Iterations  =  14
                                  Total H  = 1.110124e+02
                                  Total O  = 5.550929e+01

----------------------------Distribution of species----------------------------

                                               Log       Log       Log    mole V
   Species          Molality    Activity  Molality  Activity     Gamma   cm³/mol

   OH-             1.185e-07   1.117e-07    -6.926    -6.952    -0.026     -3.38
   H+              1.137e-07   1.077e-07    -6.944    -6.968    -0.023      0.00
   H2O             5.551e+01   1.000e+00     1.744    -0.000     0.000     17.91
H(0)          1.414e-14
   H2              7.072e-15   7.077e-15   -14.150   -14.150     0.000     28.52
O(0)          0.000e+00
   O2              0.000e+00   0.000e+00   -64.261   -64.261     0.000     30.12
S(-2)         6.904e-21
   HS-             3.882e-21   3.661e-21   -20.411   -20.436    -0.026     20.71
   H2S             3.022e-21   3.024e-21   -20.520   -20.519     0.000     36.82
   S-2             6.109e-27   4.858e-27   -26.214   -26.314    -0.100     (0)  
S(6)          7.694e-04
   SO4-2           7.183e-04   5.710e-04    -3.144    -3.243    -0.100     13.74
   SrSO4           5.106e-05   5.109e-05    -4.292    -4.292     0.000     24.80
   HSO4-           5.124e-09   4.834e-09    -8.290    -8.316    -0.025     39.88
Sr            7.694e-04
   Sr+2            7.183e-04   5.722e-04    -3.144    -3.242    -0.099    -16.06
   SrSO4           5.106e-05   5.109e-05    -4.292    -4.292     0.000     24.80
   SrOH+           2.929e-10   2.766e-10    -9.533    -9.558    -0.025     (0)  

------------------------------Saturation indices-------------------------------

  Phase               SI** log IAP   log K(298 K, 200 atm)

  Celestite         0.00     -6.49   -6.49  SrSO4
  H2(g)           -10.95    -14.15   -3.20  H2
  H2O(g)           -1.44     -0.00    1.44  H2O
  H2S(g)          -19.34    -27.40   -8.07  H2S
  O2(g)           -61.26    -64.26   -3.00  O2
  Sulfur          -14.37     -9.62    4.75  S

**For a gas, SI = log10(fugacity). Fugacity = pressure * phi / 1 atm.
  For ideal gases, phi = 1.

Reaction step 2.

Using solution 1.	
Using pure phase assemblage 1.	
Using temperature 1.	

-------------------------------Phase assemblage--------------------------------

                                                      Moles in assemblage
Phase               SI  log IAP  log K(T, P)   Initial       Final       Delta

Celestite         0.00    -6.65     -6.65    1.000e+01   9.999e+00  -6.369e-04

-----------------------------Solution composition------------------------------

	Elements           Molality       Moles

	S                 6.369e-04   6.369e-04
	Sr                6.369e-04   6.369e-04

----------------------------Description of solution----------------------------

                                       pH  =   6.608      Charge balance
                                       pe  =  -1.205      Adjusted to redox equilibrium
      Specific Conductance (µS/cm,  50°C)  = 240
                          Density (g/cm³)  =   0.99667
                               Volume (L)  =   1.00345
                        Activity of water  =   1.000
                 Ionic strength (mol/kgw)  =   2.359e-03
                       Mass of water (kg)  =   1.000e+00
                 Total alkalinity (eq/kg)  =  -5.245e-19
                    Total carbon (mol/kg)  =   0.000e+00
                       Total CO2 (mol/kg)  =   0.000e+00
                         Temperature (°C)  =  50.00
                           Pressure (atm)  = 200.00
                  Electrical balance (eq)  =   3.771e-15
 Percent error, 100*(Cat-|An|)/(Cat+|An|)  =   0.00
                               Iterations  =  14
                                  Total H  = 1.110124e+02
                                  Total O  = 5.550876e+01

----------------------------Distribution of species----------------------------

                                               Log       Log       Log    mole V
   Species          Molality    Activity  Molality  Activity     Gamma   cm³/mol

   OH-             2.773e-07   2.622e-07    -6.557    -6.581    -0.024     -3.99
   H+              2.594e-07   2.463e-07    -6.586    -6.608    -0.022      0.00
   H2O             5.551e+01   1.000e+00     1.744    -0.000     0.000     18.08
H(0)          1.414e-14
   H2              7.072e-15   7.076e-15   -14.150   -14.150     0.000     28.50
O(0)          0.000e+00
   O2              0.000e+00   0.000e+00   -56.806   -56.806     0.000     31.50
S(-2)         1.412e-23
   H2S             7.084e-24   7.088e-24   -23.150   -23.149     0.000     36.89
   HS-             7.034e-24   6.651e-24   -23.153   -23.177    -0.024     21.17
   S-2             2.310e-29   1.856e-29   -28.636   -28.732    -0.095     (0)  
S(6)          6.369e-04
   SO4-2           5.898e-04   4.737e-04    -3.229    -3.324    -0.095     15.72
   SrSO4           4.716e-05   4.718e-05    -4.326    -4.326     0.000     25.37
   HSO4-           1.801e-08   1.704e-08    -7.744    -7.769    -0.024     40.78
Sr            6.369e-04
   Sr+2            5.898e-04   4.745e-04    -3.229    -3.324    -0.094    -16.71
   SrSO4           4.716e-05   4.718e-05    -4.326    -4.326     0.000     25.37
   SrOH+           1.054e-10   9.981e-11    -9.977   -10.001    -0.024     (0)  

------------------------------Saturation indices-------------------------------

  Phase               SI** log IAP   log K(323 K, 200 atm)

  Celestite         0.00     -6.65   -6.65  SrSO4
  H2(g)           -10.92    -14.15   -3.23  H2
  H2O(g)           -0.86     -0.00    0.86  H2O
  H2S(g)          -21.77    -29.79   -8.02  H2S
  O2(g)           -53.67    -56.81   -3.13  O2
  Sulfur          -16.56    -12.34    4.22  S

**For a gas, SI = log10(fugacity). Fugacity = pressure * phi / 1 atm.
  For ideal gases, phi = 1.

Reaction step 3.

Using solution 1.	
Using pure phase assemblage 1.	
Using temperature 1.	

-------------------------------Phase assemblage--------------------------------

                                                      Moles in assemblage
Phase               SI  log IAP  log K(T, P)   Initial       Final       Delta

Celestite         0.00    -6.82     -6.82    1.000e+01   9.999e+00  -5.194e-04

-----------------------------Solution composition------------------------------

	Elements           Molality       Moles

	S                 5.194e-04   5.194e-04
	Sr                5.194e-04   5.194e-04

----------------------------Description of solution----------------------------

                                       pH  =   6.331      Charge balance
                                       pe  =  -0.966      Adjusted to redox equilibrium
      Specific Conductance (µS/cm,  75°C)  = 276
                          Density (g/cm³)  =   0.98367
                               Volume (L)  =   1.01670
                        Activity of water  =   1.000
                 Ionic strength (mol/kgw)  =   1.917e-03
                       Mass of water (kg)  =   1.000e+00
                 Total alkalinity (eq/kg)  =  -1.920e-18
                    Total carbon (mol/kg)  =   0.000e+00
                       Total CO2 (mol/kg)  =   0.000e+00
                         Temperature (°C)  =  75.00
                           Pressure (atm)  = 200.00
                  Electrical balance (eq)  =   4.492e-15
 Percent error, 100*(Cat-|An|)/(Cat+|An|)  =   0.00
                               Iterations  =  14
                                  Total H  = 1.110124e+02
                                  Total O  = 5.550829e+01

----------------------------Distribution of species----------------------------

                                               Log       Log       Log    mole V
   Species          Molality    Activity  Molality  Activity     Gamma   cm³/mol

   OH-             5.459e-07   5.175e-07    -6.263    -6.286    -0.023     -5.08
   H+              4.906e-07   4.668e-07    -6.309    -6.331    -0.022      0.00
   H2O             5.551e+01   1.000e+00     1.744    -0.000     0.000     18.32
H(0)          1.415e-14
   H2              7.073e-15   7.076e-15   -14.150   -14.150     0.000     28.49
O(0)          0.000e+00
   O2              0.000e+00   0.000e+00   -50.421   -50.420     0.000     32.45
S(-2)         6.776e-26
   H2S             3.976e-26   3.978e-26   -25.401   -25.400     0.000     36.94
   HS-             2.800e-26   2.654e-26   -25.553   -25.576    -0.023     20.88
   S-2             1.839e-31   1.492e-31   -30.735   -30.826    -0.091     (0)  
S(6)          5.194e-04
   SO4-2           4.791e-04   3.885e-04    -3.320    -3.411    -0.091     15.39
   SrSO4           4.021e-05   4.023e-05    -4.396    -4.395     0.000     25.71
   HSO4-           5.537e-08   5.250e-08    -7.257    -7.280    -0.023     40.85
Sr            5.194e-04
   Sr+2            4.792e-04   3.891e-04    -3.320    -3.410    -0.090    -17.41
   SrSO4           4.021e-05   4.023e-05    -4.396    -4.395     0.000     25.71
   SrOH+           4.533e-11   4.302e-11   -10.344   -10.366    -0.023     (0)  

------------------------------Saturation indices-------------------------------

  Phase               SI** log IAP   log K(348 K, 200 atm)

  Celestite         0.00     -6.82   -6.82  SrSO4
  H2(g)           -10.93    -14.15   -3.22  H2
  H2O(g)           -0.37     -0.00    0.37  H2O
  H2S(g)          -23.91    -31.91   -7.99  H2S
  O2(g)           -47.22    -50.42   -3.20  O2
  Sulfur          -18.44    -14.67    3.77  S

**For a gas, SI = log10(fugacity). Fugacity = pressure * phi / 1 atm.
  For ideal gases, phi = 1.

Reaction step 4.

Using solution 1.	
Using pure phase assemblage 1.	
Using temperature 1.	

-------------------------------Phase assemblage--------------------------------

                                                      Moles in assemblage
Phase               SI  log IAP  log K(T, P)   Initial       Final       Delta

Celestite         0.00    -7.01     -7.01    1.000e+01   1.000e+01  -4.151e-04

-----------------------------Solution composition------------------------------

	Elements           Molality       Moles

	S                 4.151e-04   4.151e-04
	Sr                4.151e-04   4.151e-04

----------------------------Description of solution----------------------------

                                       pH  =   6.120      Charge balance
                                       pe  =  -0.790      Adjusted to redox equilibrium
      Specific Conductance (µS/cm, 100°C)  = 291
                          Density (g/cm³)  =   0.96771
                               Volume (L)  =   1.03345
                        Activity of water  =   1.000
                 Ionic strength (mol/kgw)  =   1.534e-03
                       Mass of water (kg)  =   1.000e+00
                 Total alkalinity (eq/kg)  =  -2.433e-18
                    Total carbon (mol/kg)  =   0.000e+00
                       Total CO2 (mol/kg)  =   0.000e+00
                         Temperature (°C)  = 100.00
                           Pressure (atm)  = 200.00
                  Electrical balance (eq)  =   4.889e-15
 Percent error, 100*(Cat-|An|)/(Cat+|An|)  =   0.00
                               Iterations  =  14
                                  Total H  = 1.110124e+02
                                  Total O  = 5.550788e+01

----------------------------Distribution of species----------------------------

                                               Log       Log       Log    mole V
   Species          Molality    Activity  Molality  Activity     Gamma   cm³/mol

   OH-             9.454e-07   8.984e-07    -6.024    -6.047    -0.022     -6.71
   H+              7.950e-07   7.581e-07    -6.100    -6.120    -0.021      0.00
   H2O             5.551e+01   1.000e+00     1.744    -0.000     0.000     18.62
H(0)          1.414e-14
   H2              7.072e-15   7.075e-15   -14.150   -14.150     0.000     28.48
O(0)          0.000e+00
   O2              0.000e+00   0.000e+00   -44.890   -44.890     0.000     33.27
S(-2)         6.500e-28
   H2S             4.429e-28   4.431e-28   -27.354   -27.354     0.000     36.96
   HS-             2.071e-28   1.968e-28   -27.684   -27.706    -0.022     19.98
   S-2             2.644e-33   2.164e-33   -32.578   -32.665    -0.087     (0)  
S(6)          4.151e-04
   SO4-2           3.831e-04   3.136e-04    -3.417    -3.504    -0.087     13.32
   SrSO4           3.181e-05   3.182e-05    -4.497    -4.497     0.000     25.92
   HSO4-           1.504e-07   1.429e-07    -6.823    -6.845    -0.022     40.32
Sr            4.151e-04
   Sr+2            3.833e-04   3.141e-04    -3.416    -3.503    -0.086    -18.27
   SrSO4           3.181e-05   3.182e-05    -4.497    -4.497     0.000     25.92
   SrOH+           2.239e-11   2.130e-11   -10.650   -10.672    -0.022     (0)  

------------------------------Saturation indices-------------------------------

  Phase               SI** log IAP   log K(373 K, 200 atm)

  Celestite         0.00     -7.01   -7.01  SrSO4
  H2(g)           -10.97    -14.15   -3.18  H2
  H2O(g)            0.05     -0.00   -0.05  H2O
  H2S(g)          -25.83    -33.83   -8.00  H2S
  O2(g)           -41.68    -44.89   -3.21  O2
  Sulfur          -20.07    -16.69    3.38  S

**For a gas, SI = log10(fugacity). Fugacity = pressure * phi / 1 atm.
  For ideal gases, phi = 1.

Reaction step 5.

Using solution 1.	
Using pure phase assemblage 1.	
Using temperature 1.	

-------------------------------Phase assemblage--------------------------------

                                                      Moles in assemblage
Phase               SI  log IAP  log K(T, P)   Initial       Final       Delta

Celestite         0.00    -7.21     -7.21    1.000e+01   1.000e+01  -3.248e-04

-----------------------------Solution composition------------------------------

	Elements           Molality       Moles

	S                 3.248e-04   3.248e-04
	Sr                3.248e-04   3.248e-04

----------------------------Description of solution----------------------------

                                       pH  =   5.968      Charge balance
                                       pe  =  -0.667      Adjusted to redox equilibrium
      Specific Conductance (µS/cm, 125°C)  = 286
                          Density (g/cm³)  =   0.94908
                               Volume (L)  =   1.05372
                        Activity of water  =   1.000
                 Ionic strength (mol/kgw)  =   1.206e-03
                       Mass of water (kg)  =   1.000e+00
                 Total alkalinity (eq/kg)  =  -9.402e-19
                    Total carbon (mol/kg)  =   0.000e+00
                       Total CO2 (mol/kg)  =   0.000e+00
                         Temperature (°C)  = 125.00
                           Pressure (atm)  = 200.00
                  Electrical balance (eq)  =   2.153e-15
 Percent error, 100*(Cat-|An|)/(Cat+|An|)  =   0.00
                               Iterations  =  14
                                  Total H  = 1.110124e+02
                                  Total O  = 5.550752e+01

----------------------------Distribution of species----------------------------

                                               Log       Log       Log    mole V
   Species          Molality    Activity  Molality  Activity     Gamma   cm³/mol

   OH-             1.489e-06   1.419e-06    -5.827    -5.848    -0.021     -9.06
   H+              1.127e-06   1.077e-06    -5.948    -5.968    -0.020      0.00
   H2O             5.551e+01   1.000e+00     1.744    -0.000     0.000     18.98
H(0)          1.414e-14
   H2              7.072e-15   7.074e-15   -14.150   -14.150     0.000     28.47
O(0)          0.000e+00
   O2              0.000e+00   0.000e+00   -40.053   -40.053     0.000     34.10
S(-2)         1.092e-29
   H2S             8.420e-30   8.422e-30   -29.075   -29.075     0.000     36.98
   HS-             2.500e-30   2.382e-30   -29.602   -29.623    -0.021     18.45
   S-2             6.108e-35   5.049e-35   -34.214   -34.297    -0.083     (0)  
S(6)          3.248e-04
   SO4-2           3.010e-04   2.488e-04    -3.521    -3.604    -0.083      9.47
   SrSO4           2.344e-05   2.345e-05    -4.630    -4.630     0.000     26.08
   HSO4-           3.622e-07   3.451e-07    -6.441    -6.462    -0.021     39.21
Sr            3.248e-04
   Sr+2            3.014e-04   2.493e-04    -3.521    -3.603    -0.082    -19.40
   SrSO4           2.344e-05   2.345e-05    -4.630    -4.630     0.000     26.08
   SrOH+           1.242e-11   1.185e-11   -10.906   -10.926    -0.021     (0)  

------------------------------Saturation indices-------------------------------

  Phase               SI** log IAP   log K(398 K, 200 atm)

  Celestite         0.00     -7.21   -7.21  SrSO4
  H2(g)           -11.03    -14.15   -3.12  H2
  H2O(g)            0.40     -0.00   -0.40  H2O
  H2S(g)          -27.55    -35.59   -8.04  H2S
  O2(g)           -36.87    -40.05   -3.18  O2
  Sulfur          -21.51    -18.47    3.04  S

**For a gas, SI = log10(fugacity). Fugacity = pressure * phi / 1 atm.
  For ideal gases, phi = 1.

Reaction step 6.

Using solution 1.	
Using pure phase assemblage 1.	
Using temperature 1.	

-------------------------------Phase assemblage--------------------------------

                                                      Moles in assemblage
Phase               SI  log IAP  log K(T, P)   Initial       Final       Delta

Celestite         0.00    -7.42     -7.42    1.000e+01   1.000e+01  -2.492e-04

-----------------------------Solution composition------------------------------

	Elements           Molality       Moles

	S                 2.492e-04   2.492e-04
	Sr                2.492e-04   2.492e-04

----------------------------Description of solution----------------------------

                                       pH  =   5.868      Charge balance
                                       pe  =  -0.668      Adjusted to redox equilibrium
      Specific Conductance (µS/cm, 150°C)  = 266
                          Density (g/cm³)  =   0.92791
                               Volume (L)  =   1.07773
                        Activity of water  =   1.000
                 Ionic strength (mol/kgw)  =   9.328e-04
                       Mass of water (kg)  =   1.000e+00
                 Total alkalinity (eq/kg)  =   3.191e-19
                    Total carbon (mol/kg)  =   0.000e+00
                       Total CO2 (mol/kg)  =   0.000e+00
                         Temperature (°C)  = 150.00
                           Pressure (atm)  = 200.00
                  Electrical balance (eq)  =   1.458e-15
 Percent error, 100*(Cat-|An|)/(Cat+|An|)  =   0.00
                               Iterations  =  14
                                  Total H  = 1.110124e+02
                                  Total O  = 5.550721e+01

----------------------------Distribution of species----------------------------

                                               Log       Log       Log    mole V
   Species          Molality    Activity  Molality  Activity     Gamma   cm³/mol

   OH-             2.187e-06   2.089e-06    -5.660    -5.680    -0.020    -12.40
   H+              1.414e-06   1.354e-06    -5.850    -5.868    -0.019      0.00
   H2O             5.551e+01   1.000e+00     1.744    -0.000     0.000     19.42
H(0)          1.986e-14
   H2              9.929e-15   9.931e-15   -14.003   -14.003     0.000     28.47
O(0)          1.654e-36
   O2              8.268e-37   8.269e-37   -36.083   -36.083     0.000     35.05
S(-2)         1.110e-30
   H2S             9.378e-31   9.380e-31   -30.028   -30.028     0.000     37.00
   HS-             1.727e-31   1.649e-31   -30.763   -30.783    -0.020     16.09
   S-2             8.057e-36   6.725e-36   -35.094   -35.172    -0.078     (0)  
S(6)          2.492e-04
   SO4-2           2.323e-04   1.939e-04    -3.634    -3.713    -0.079      3.39
   SrSO4           1.615e-05   1.615e-05    -4.792    -4.792     0.000     26.20
   HSO4-           7.734e-07   7.388e-07    -6.112    -6.131    -0.020     37.40
Sr            2.492e-04
   Sr+2            2.330e-04   1.947e-04    -3.633    -3.711    -0.078    -20.94
   SrSO4           1.615e-05   1.615e-05    -4.792    -4.792     0.000     26.20
   SrOH+           7.647e-12   7.309e-12   -11.116   -11.136    -0.020     (0)  

------------------------------Saturation indices-------------------------------

  Phase               SI** log IAP   log K(423 K, 200 atm)

  Celestite         0.00     -7.42   -7.42  SrSO4
  H2(g)           -10.95    -14.00   -3.05  H2
  H2O(g)            0.71     -0.00   -0.71  H2O
  H2S(g)          -28.55    -36.65   -8.10  H2S
  O2(g)           -32.96    -36.08   -3.13  O2
  Sulfur          -22.36    -19.63    2.73  S

**For a gas, SI = log10(fugacity). Fugacity = pressure * phi / 1 atm.
  For ideal gases, phi = 1.

Reaction step 7.

Using solution 1.	
Using pure phase assemblage 1.	
Using temperature 1.	

-------------------------------Phase assemblage--------------------------------

                                                      Moles in assemblage
Phase               SI  log IAP  log K(T, P)   Initial       Final       Delta

Celestite         0.00    -7.65     -7.65    1.000e+01   1.000e+01  -1.881e-04

-----------------------------Solution composition------------------------------

	Elements           Molality       Moles

	S                 1.881e-04   1.881e-04
	Sr                1.881e-04   1.881e-04

----------------------------Description of solution----------------------------

                                       pH  =   5.818      Charge balance
                                       pe  =   4.424      Adjusted to redox equilibrium
      Specific Conductance (µS/cm, 175°C)  = 237
                          Density (g/cm³)  =   0.90425
                               Volume (L)  =   1.10593
                        Activity of water  =   1.000
                 Ionic strength (mol/kgw)  =   7.109e-04
                       Mass of water (kg)  =   1.000e+00
                 Total alkalinity (eq/kg)  =   1.281e-17
                    Total carbon (mol/kg)  =   0.000e+00
                       Total CO2 (mol/kg)  =   0.000e+00
                         Temperature (°C)  = 175.00
                           Pressure (atm)  = 200.00
                  Electrical balance (eq)  =   3.113e-14
 Percent error, 100*(Cat-|An|)/(Cat+|An|)  =   0.00
                               Iterations  =   9
                                  Total H  = 1.110124e+02
                                  Total O  = 5.550697e+01

----------------------------Distribution of species----------------------------

                                               Log       Log       Log    mole V
   Species          Molality    Activity  Molality  Activity     Gamma   cm³/mol

   OH-             3.049e-06   2.920e-06    -5.516    -5.535    -0.019    -17.20
   H+              1.586e-06   1.522e-06    -5.800    -5.818    -0.018      0.00
   H2O             5.551e+01   1.000e+00     1.744    -0.000     0.000     19.92
H(0)          1.477e-24
   H2              7.385e-25   7.386e-25   -24.132   -24.132     0.000     28.47
O(0)          1.839e-12
   O2              9.195e-13   9.197e-13   -12.036   -12.036     0.000     36.25
S(-2)         0.000e+00
   H2S             0.000e+00   0.000e+00   -71.949   -71.949     0.000     37.01
   HS-             0.000e+00   0.000e+00   -72.895   -72.913    -0.019     12.58
   S-2             0.000e+00   0.000e+00   -76.941   -77.016    -0.074     (0)  
S(6)          1.881e-04
   SO4-2           1.762e-04   1.485e-04    -3.754    -3.828    -0.074     -5.77
   SrSO4           1.042e-05   1.043e-05    -4.982    -4.982     0.000     26.29
   HSO4-           1.463e-06   1.401e-06    -5.835    -5.853    -0.019     34.62
Sr            1.881e-04
   Sr+2            1.777e-04   1.499e-04    -3.750    -3.824    -0.074    -23.12
   SrSO4           1.042e-05   1.043e-05    -4.982    -4.982     0.000     26.29
   SrOH+           5.182e-12   4.965e-12   -11.286   -11.304    -0.019     (0)  

------------------------------Saturation indices-------------------------------

  Phase               SI** log IAP   log K(448 K, 200 atm)

  Celestite         0.00     -7.65   -7.65  SrSO4
  H2(g)           -21.17    -24.13   -2.97  H2
  H2O(g)            0.97     -0.00   -0.97  H2O
  H2S(g)          -70.55    -78.73   -8.18  H2S
  O2(g)            -8.99    -12.04   -3.05  O2
  Sulfur          -53.93    -51.47    2.46  S

**For a gas, SI = log10(fugacity). Fugacity = pressure * phi / 1 atm.
  For ideal gases, phi = 1.

Reaction step 8.

Using solution 1.	
Using pure phase assemblage 1.	
Using temperature 1.	

-------------------------------Phase assemblage--------------------------------

                                                      Moles in assemblage
Phase               SI  log IAP  log K(T, P)   Initial       Final       Delta

Celestite         0.00    -7.89     -7.89    1.000e+01   1.000e+01  -1.406e-04

-----------------------------Solution composition------------------------------

	Elements           Molality       Moles

	S                 1.406e-04   1.406e-04
	Sr                1.406e-04   1.406e-04

----------------------------Description of solution----------------------------

                                       pH  =   5.811      Charge balance
                                       pe  =   4.429      Adjusted to redox equilibrium
      Specific Conductance (µS/cm, 200°C)  = 205
                          Density (g/cm³)  =   0.87802
                               Volume (L)  =   1.13896
                        Activity of water  =   1.000
                 Ionic strength (mol/kgw)  =   5.361e-04
                       Mass of water (kg)  =   1.000e+00
                 Total alkalinity (eq/kg)  =   1.533e-16
                    Total carbon (mol/kg)  =   0.000e+00
                       Total CO2 (mol/kg)  =   0.000e+00
                         Temperature (°C)  = 200.00
                           Pressure (atm)  = 200.00
                  Electrical balance (eq)  =   5.505e-13
 Percent error, 100*(Cat-|An|)/(Cat+|An|)  =   0.00
                               Iterations  =   9
                                  Total H  = 1.110124e+02
                                  Total O  = 5.550678e+01

----------------------------Distribution of species----------------------------

                                               Log       Log       Log    mole V
   Species          Molality    Activity  Molality  Activity     Gamma   cm³/mol

   OH-             4.068e-06   3.905e-06    -5.391    -5.408    -0.018    -24.26
   H+              1.607e-06   1.545e-06    -5.794    -5.811    -0.017      0.00
   H2O             5.551e+01   1.000e+00     1.744    -0.000     0.000     20.52
H(0)          1.349e-24
   H2              6.744e-25   6.745e-25   -24.171   -24.171     0.000     28.46
O(0)          5.389e-09
   O2              2.694e-09   2.695e-09    -8.570    -8.570     0.000     37.88
S(-2)         0.000e+00
   H2S             0.000e+00   0.000e+00   -73.409   -73.409     0.000     37.02
   HS-             0.000e+00   0.000e+00   -74.563   -74.581    -0.018      7.32
   S-2             0.000e+00   0.000e+00   -78.321   -78.392    -0.070     (0)  
S(6)          1.406e-04
   SO4-2           1.318e-04   1.121e-04    -3.880    -3.950    -0.070    -19.59
   SrSO4           6.318e-06   6.319e-06    -5.199    -5.199     0.000     26.36
   HSO4-           2.461e-06   2.362e-06    -5.609    -5.627    -0.018     30.40
Sr            1.406e-04
   Sr+2            1.342e-04   1.143e-04    -3.872    -3.942    -0.070    -26.28
   SrSO4           6.318e-06   6.319e-06    -5.199    -5.199     0.000     26.36
   SrOH+           3.833e-12   3.682e-12   -11.416   -11.434    -0.018     (0)  

------------------------------Saturation indices-------------------------------

  Phase               SI** log IAP   log K(473 K, 200 atm)

  Celestite         0.00     -7.89   -7.89  SrSO4
  H2(g)           -21.30    -24.17   -2.87  H2
  H2O(g)            1.20     -0.00   -1.20  H2O
  H2S(g)          -72.10    -80.39   -8.29  H2S
  O2(g)            -5.62     -8.57   -2.95  O2
  Sulfur          -55.15    -52.93    2.22  S

**For a gas, SI = log10(fugacity). Fugacity = pressure * phi / 1 atm.
  For ideal gases, phi = 1.

Reaction step 9.

Using solution 1.	
Using pure phase assemblage 1.	
Using temperature 1.	

-------------------------------Phase assemblage--------------------------------

                                                      Moles in assemblage
Phase               SI  log IAP  log K(T, P)   Initial       Final       Delta

Celestite         0.00    -8.14     -8.14    1.000e+01   1.000e+01  -1.050e-04

-----------------------------Solution composition------------------------------

	Elements           Molality       Moles

	S                 1.050e-04   1.050e-04
	Sr                1.050e-04   1.050e-04

----------------------------Description of solution----------------------------

                                       pH  =   5.841      Charge balance
                                       pe  =   3.531      Adjusted to redox equilibrium
      Specific Conductance (µS/cm, 225°C)  = 174
                          Density (g/cm³)  =   0.84896
                               Volume (L)  =   1.17794
                        Activity of water  =   1.000
                 Ionic strength (mol/kgw)  =   4.032e-04
                       Mass of water (kg)  =   1.000e+00
                 Total alkalinity (eq/kg)  =  -1.964e-21
                    Total carbon (mol/kg)  =   0.000e+00
                       Total CO2 (mol/kg)  =   0.000e+00
                         Temperature (°C)  = 225.00
                           Pressure (atm)  = 200.00
                  Electrical balance (eq)  =   4.241e-19
 Percent error, 100*(Cat-|An|)/(Cat+|An|)  =   0.00
                               Iterations  =  17
                                  Total H  = 1.110124e+02
                                  Total O  = 5.550664e+01

----------------------------Distribution of species----------------------------

                                               Log       Log       Log    mole V
   Species          Molality    Activity  Molality  Activity     Gamma   cm³/mol

   OH-             5.204e-06   5.006e-06    -5.284    -5.301    -0.017    -34.99
   H+              1.495e-06   1.441e-06    -5.825    -5.841    -0.016      0.00
   H2O             5.551e+01   1.000e+00     1.744    -0.000     0.000     21.22
H(0)          6.744e-23
   H2              3.372e-23   3.372e-23   -22.472   -22.472     0.000     28.46
O(0)          2.401e-09
   O2              1.201e-09   1.201e-09    -8.921    -8.921     0.000     40.26
S(-2)         0.000e+00
   H2S             0.000e+00   0.000e+00   -67.831   -67.831     0.000     37.02
   HS-             0.000e+00   0.000e+00   -69.191   -69.208    -0.017     -0.76
   S-2             0.000e+00   0.000e+00   -72.659   -72.725    -0.067     (0)  
S(6)          1.050e-04
   SO4-2           9.765e-05   8.377e-05    -4.010    -4.077    -0.067    -40.89
   HSO4-           3.708e-06   3.567e-06    -5.431    -5.448    -0.017     23.87
   SrSO4           3.602e-06   3.603e-06    -5.443    -5.443     0.000     26.43
Sr            1.050e-04
   Sr+2            1.014e-04   8.699e-05    -3.994    -4.061    -0.066    -31.07
   SrSO4           3.602e-06   3.603e-06    -5.443    -5.443     0.000     26.43
   SrOH+           3.067e-12   2.952e-12   -11.513   -11.530    -0.017     (0)  

------------------------------Saturation indices-------------------------------

  Phase               SI** log IAP   log K(498 K, 200 atm)

  Celestite         0.00     -8.14   -8.14  SrSO4
  H2(g)           -19.70    -22.47   -2.77  H2
  H2O(g)            1.40     -0.00   -1.40  H2O
  H2S(g)          -66.63    -75.05   -8.42  H2S
  O2(g)            -6.08     -8.92   -2.84  O2
  Sulfur          -51.09    -49.09    2.01  S

**For a gas, SI = log10(fugacity). Fugacity = pressure * phi / 1 atm.
  For ideal gases, phi = 1.

Reaction step 10.

Using solution 1.	
Using pure phase assemblage 1.	
Using temperature 1.	

-------------------------------Phase assemblage--------------------------------

                                                      Moles in assemblage
Phase               SI  log IAP  log K(T, P)   Initial       Final       Delta

Celestite         0.00    -8.38     -8.38    1.000e+01   1.000e+01  -7.962e-05

-----------------------------Solution composition------------------------------

	Elements           Molality       Moles

	S                 7.962e-05   7.962e-05
	Sr                7.962e-05   7.962e-05

----------------------------Description of solution----------------------------

                                       pH  =   5.901      Charge balance
                                       pe  =   2.815      Adjusted to redox equilibrium
      Specific Conductance (µS/cm, 250°C)  = 147
                          Density (g/cm³)  =   0.81648
                               Volume (L)  =   1.22479
                        Activity of water  =   1.000
                 Ionic strength (mol/kgw)  =   3.070e-04
                       Mass of water (kg)  =   1.000e+00
                 Total alkalinity (eq/kg)  =   8.829e-21
                    Total carbon (mol/kg)  =   0.000e+00
                       Total CO2 (mol/kg)  =   0.000e+00
                         Temperature (°C)  = 250.00
                           Pressure (atm)  = 200.00
                  Electrical balance (eq)  =  -3.156e-19
 Percent error, 100*(Cat-|An|)/(Cat+|An|)  =  -0.00
                               Iterations  =  23
                                  Total H  = 1.110124e+02
                                  Total O  = 5.550654e+01

----------------------------Distribution of species----------------------------

                                               Log       Log       Log    mole V
   Species          Molality    Activity  Molality  Activity     Gamma   cm³/mol

   OH-             6.375e-06   6.143e-06    -5.195    -5.212    -0.016    -52.14
   H+              1.303e-06   1.257e-06    -5.885    -5.901    -0.016      0.00
   H2O             5.551e+01   1.000e+00     1.744    -0.000     0.000     22.07
H(0)          1.282e-21
   H2              6.408e-22   6.409e-22   -21.193   -21.193     0.000     28.46
O(0)          3.770e-09
   O2              1.885e-09   1.885e-09    -8.725    -8.725     0.000     43.95
S(-2)         0.000e+00
   H2S             0.000e+00   0.000e+00   -63.862   -63.862     0.000     37.03
   HS-             0.000e+00   0.000e+00   -65.424   -65.440    -0.016    -13.74
   S-2             0.000e+00   0.000e+00   -68.606   -68.670    -0.064     (0)  
S(6)          7.962e-05
   SO4-2           7.261e-05   6.266e-05    -4.139    -4.203    -0.064    -75.16
   HSO4-           5.073e-06   4.887e-06    -5.295    -5.311    -0.016     13.34
   SrSO4           1.935e-06   1.935e-06    -5.713    -5.713     0.000     26.48
Sr            7.962e-05
   Sr+2            7.769e-05   6.706e-05    -4.110    -4.174    -0.064    -38.70
   SrSO4           1.935e-06   1.935e-06    -5.713    -5.713     0.000     26.48
   SrOH+           2.628e-12   2.533e-12   -11.580   -11.596    -0.016     (0)  

------------------------------Saturation indices-------------------------------

  Phase               SI** log IAP   log K(523 K, 200 atm)

  Celestite         0.00     -8.38   -8.38  SrSO4
  H2(g)           -18.53    -21.19   -2.66  H2
  H2O(g)            1.57     -0.00   -1.57  H2O
  H2S(g)          -62.78    -71.34   -8.56  H2S
  O2(g)            -6.00     -8.72   -2.72  O2
  Sulfur          -48.24    -46.43    1.81  S

**For a gas, SI = log10(fugacity). Fugacity = pressure * phi / 1 atm.
  For ideal gases, phi = 1.

------------------
End of simulation.
------------------

------------------------------------
Reading input data for simulation 2.
------------------------------------

-------------------------------
End of Run after 0.015 Seconds.
-------------------------------

