   Input file: SrSO4_P
  Output file: SrSO4_P.out
Database file: ../database/phreeqc.dat

------------------
Reading data base.
------------------

	SOLUTION_MASTER_SPECIES
	SOLUTION_SPECIES
	PHASES
	EXCHANGE_MASTER_SPECIES
	EXCHANGE_SPECIES
	SURFACE_MASTER_SPECIES
	SURFACE_SPECIES
	RATES
	END
------------------------------------
Reading input data for simulation 1.
------------------------------------

	DATABASE ../database/phreeqc.dat
	SOLUTION_SPECIES
	Sr+2 = Sr+2
		gamma	5.260	0.121
	 dw 0.794e-9
		vm  -15.4 -0.168 23e-4  0.051 0.075 -9.2e-4  -10e-3 97 # 0-200 OC, 1-600 atm. SrCl2.xls, Laliberte, 2009.  Celestite solubility, Howell et al., 1992, JCED 37, 464.
	SO4-2 = SO4-2
		gamma	5.0	-0.04
		dw 	1.07e-9
		millero 9.26 0.284 -0.003808 0.4348 -0.0099143 -8.4762e-05
		vm 9.55 0.297 -3e-3  2.06 -0.08 7.08e-4  -10e-3  0.017 # Na2SO4.xls, Laliberte, 2009; Phulela and Pitzer, 1986; Gypsum/Anhydrite solubility.  0-200 oC, 1-1000 atm.
		vm   7.76 0.324 -3.4e-3  -0.094 -1.2e-3 2.57e-5  -10e-3  0.93
	Na+ + SO4-2 = NaSO4-
		log_k	0.7
		delta_h 1.120	kcal
		dw 6.18e-10
		vm  21.3 0.1 -1.7e-3  7.03 -0.144 1.56e-3  0  1.9
	Sr+2 + SO4-2 = SrSO4
		log_k	2.29
		delta_h 2.08	kcal
		vm    11.1 0.115 -2e-3  0 0 0 -1e-3 # By analogy with CaSO4
	PHASES
	Celestite
		SrSO4 = Sr+2 + SO4-2
		log_k	-6.63
		delta_h -4.037 kcal
		analytical_expression  -7.14 6.11E-03  75 0 0 -1.79E-05  # Howell et al., 1992, JCED 37, 464.
		vm 46.4
	SOLUTION 1
	 pH 7 charge
	 temp 25
	EQUILIBRIUM_PHASES
	 Celestite
	REACTION_PRESSURE
	 1 600 in 10
	USER_GRAPH
	 -plot_csv_file SrSO4_P.dat
	 -axis_titles "Pressure / bar" "Celestite Solubility / (mol/kgw)"
	 -connect_simulations false
	 10 graph_x pressure * 1.013
	 20 graph_y tot("Sr")
	END
-------------------------------------------
Beginning of initial solution calculations.
-------------------------------------------

Initial solution 1.	

-----------------------------Solution composition------------------------------

	Elements           Molality       Moles

	Pure water     

----------------------------Description of solution----------------------------

                                       pH  =   6.997      Charge balance
                                       pe  =   4.000    
       Specific Conductance (uS/cm, 25 oC) = 0
                          Density (g/cm3)  =   0.99700
                        Activity of water  =   1.000
                           Ionic strength  =   1.008e-07
                       Mass of water (kg)  =   1.000e+00
                 Total alkalinity (eq/kg)  =   3.540e-17
                    Total carbon (mol/kg)  =   0.000e+00
                       Total CO2 (mol/kg)  =   0.000e+00
                      Temperature (deg C)  =  25.00
                  Electrical balance (eq)  =  -3.540e-17
 Percent error, 100*(Cat-|An|)/(Cat+|An|)  =  -0.00
                               Iterations  =   2
                                  Total H  = 1.110124e+02
                                  Total O  = 5.550622e+01

----------------------------Distribution of species----------------------------

                                            Log       Log         Log     mole V
   Species          Molality    Activity  Molality  Activity     Gamma   cm3/mol

   OH-             1.008e-07   1.008e-07    -6.997    -6.997    -0.000     -3.76
   H+              1.008e-07   1.008e-07    -6.997    -6.997    -0.000      0.00
   H2O             5.551e+01   1.000e+00     1.744    -0.000     0.000     18.07
H(0)          1.438e-25
   H2              7.189e-26   7.189e-26   -25.143   -25.143     0.000     20.00
O(0)          0.000e+00
   O2              0.000e+00   0.000e+00   -42.093   -42.093     0.000     35.00

------------------------------Saturation indices-------------------------------

	Phase               SI   log IAP   log K(298 K,   1 atm)

	H2(g)           -22.04    -25.14   -3.10  H2
	H2O(g)           -1.50     -0.00    1.50  H2O
	O2(g)           -39.20    -42.09   -2.89  O2


-----------------------------------------
Beginning of batch-reaction calculations.
-----------------------------------------

Reaction step 1.

Using solution 1.	
Using pure phase assemblage 1.	
Using pressure 1.	

-------------------------------Phase assemblage--------------------------------

                                                      Moles in assemblage
Phase               SI  log IAP  log K(T, P)   Initial       Final       Delta

Celestite         0.00    -6.66     -6.66    1.000e+01   9.999e+00  -6.205e-04

-----------------------------Solution composition------------------------------

	Elements           Molality       Moles

	S                 6.205e-04   6.205e-04
	Sr                6.205e-04   6.205e-04

----------------------------Description of solution----------------------------

                                       pH  =   7.005      Charge balance
                                       pe  =  10.903      Adjusted to redox equilibrium
       Specific Conductance (uS/cm, 25 oC) = 148
                          Density (g/cm3)  =   0.99711
                        Activity of water  =   1.000
                           Ionic strength  =   2.311e-03
                       Mass of water (kg)  =   1.000e+00
                 Total alkalinity (eq/kg)  =   3.535e-17
                    Total carbon (mol/kg)  =   0.000e+00
                       Total CO2 (mol/kg)  =   0.000e+00
                      Temperature (deg C)  =  25.00
                  Electrical balance (eq)  =   1.890e-15
 Percent error, 100*(Cat-|An|)/(Cat+|An|)  =   0.00
                               Iterations  =  14
                                  Total H  = 1.110124e+02
                                  Total O  = 5.550870e+01

----------------------------Distribution of species----------------------------

                                            Log       Log         Log     mole V
   Species          Molality    Activity  Molality  Activity     Gamma   cm3/mol

   OH-             1.084e-07   1.027e-07    -6.965    -6.988    -0.023     -3.72
   H+              1.039e-07   9.886e-08    -6.984    -7.005    -0.021      0.00
   H2O             5.551e+01   1.000e+00     1.744    -0.000     0.000     18.07
H(0)          2.162e-39
   H2              1.081e-39   1.082e-39   -38.966   -38.966     0.000     20.00
O(0)          7.121e-15
   O2              3.561e-15   3.562e-15   -14.448   -14.448     0.000     35.00
S(-2)         0.000e+00
   HS-             0.000e+00   0.000e+00  -119.925  -119.948    -0.023     15.04
   H2S             0.000e+00   0.000e+00  -120.011  -120.011     0.000     34.71
   S-2             0.000e+00   0.000e+00  -125.770  -125.861    -0.091     (0)  
S(6)          6.205e-04
   SO4-2           5.776e-04   4.685e-04    -3.238    -3.329    -0.091     13.91
   SrSO4           4.284e-05   4.286e-05    -4.368    -4.368     0.000     12.72
   HSO4-           4.748e-09   4.503e-09    -8.323    -8.347    -0.023     (0)  
Sr            6.205e-04
   Sr+2            5.776e-04   4.692e-04    -3.238    -3.329    -0.090    -18.09
   SrSO4           4.284e-05   4.286e-05    -4.368    -4.368     0.000     12.72
   SrOH+           2.565e-10   2.434e-10    -9.591    -9.614    -0.023     (0)  

------------------------------Saturation indices-------------------------------

	Phase               SI   log IAP   log K(298 K,   1 atm)

	Celestite         0.00     -6.66   -6.66  SrSO4
	H2(g)           -35.86    -38.97   -3.10  H2
	H2O(g)           -1.50     -0.00    1.50  H2O
	H2S(g)         -118.96   -126.95   -7.99  H2S
	O2(g)           -11.56    -14.45   -2.89  O2
	Sulfur          -89.08    -84.20    4.88  S


Reaction step 2.

Using solution 1.	
Using pure phase assemblage 1.	
Using pressure 1.	

-------------------------------Phase assemblage--------------------------------

                                                      Moles in assemblage
Phase               SI  log IAP  log K(T, P)   Initial       Final       Delta

Celestite        -0.00    -6.60     -6.60    1.000e+01   9.999e+00  -6.686e-04

-----------------------------Solution composition------------------------------

	Elements           Molality       Moles

	S                 6.686e-04   6.686e-04
	Sr                6.686e-04   6.686e-04

----------------------------Description of solution----------------------------

                                       pH  =   6.993      Charge balance
                                       pe  =  10.915      Adjusted to redox equilibrium
       Specific Conductance (uS/cm, 25 oC) = 158
                          Density (g/cm3)  =   1.00001
                        Activity of water  =   1.000
                           Ionic strength  =   2.487e-03
                       Mass of water (kg)  =   1.000e+00
                 Total alkalinity (eq/kg)  =   3.520e-17
                    Total carbon (mol/kg)  =   0.000e+00
                       Total CO2 (mol/kg)  =   0.000e+00
                      Temperature (deg C)  =  25.00
                           Pressure (atm)  = 67.56
                  Electrical balance (eq)  =   2.746e-15
 Percent error, 100*(Cat-|An|)/(Cat+|An|)  =   0.00
                               Iterations  =  14
                                  Total H  = 1.110124e+02
                                  Total O  = 5.550889e+01

----------------------------Distribution of species----------------------------

                                            Log       Log         Log     mole V
   Species          Molality    Activity  Molality  Activity     Gamma   cm3/mol

   OH-             1.119e-07   1.059e-07    -6.951    -6.975    -0.024     -3.46
   H+              1.070e-07   1.017e-07    -6.971    -6.993    -0.022      0.00
   H2O             5.551e+01   1.000e+00     1.744    -0.000     0.000     18.02
H(0)          2.051e-39
   H2              1.025e-39   1.026e-39   -38.989   -38.989     0.000     20.00
O(0)          7.121e-15
   O2              3.560e-15   3.562e-15   -14.449   -14.448     0.000     35.00
S(-2)         0.000e+00
   HS-             0.000e+00   0.000e+00  -119.966  -119.990    -0.024     15.05
   H2S             0.000e+00   0.000e+00  -120.064  -120.064     0.000     34.53
   S-2             0.000e+00   0.000e+00  -125.736  -125.829    -0.094     (0)  
S(6)          6.686e-04
   SO4-2           6.217e-04   5.009e-04    -3.206    -3.300    -0.094     14.58
   SrSO4           4.694e-05   4.696e-05    -4.328    -4.328     0.000     12.79
   HSO4-           5.229e-09   4.950e-09    -8.282    -8.305    -0.024     (0)  
Sr            6.686e-04
   Sr+2            6.217e-04   5.018e-04    -3.206    -3.299    -0.093    -17.43
   SrSO4           4.694e-05   4.696e-05    -4.328    -4.328     0.000     12.79
   SrOH+           2.672e-10   2.532e-10    -9.573    -9.597    -0.023     (0)  

------------------------------Saturation indices-------------------------------

	Phase               SI   log IAP   log K(298 K,  68 atm)

	Celestite        -0.00     -6.60   -6.60  SrSO4
	H2(g)           -35.89    -38.99   -3.10  H2
	H2O(g)           -1.48     -0.00    1.48  H2O
	H2S(g)         -119.06   -126.98   -7.92  H2S
	O2(g)           -11.51    -14.45   -2.93  O2
	Sulfur          -89.20    -84.25    4.95  S


Reaction step 3.

Using solution 1.	
Using pure phase assemblage 1.	
Using pressure 1.	

-------------------------------Phase assemblage--------------------------------

                                                      Moles in assemblage
Phase               SI  log IAP  log K(T, P)   Initial       Final       Delta

Celestite        -0.00    -6.54     -6.54    1.000e+01   9.999e+00  -7.179e-04

-----------------------------Solution composition------------------------------

	Elements           Molality       Moles

	S                 7.179e-04   7.179e-04
	Sr                7.179e-04   7.179e-04

----------------------------Description of solution----------------------------

                                       pH  =   6.981      Charge balance
                                       pe  =  10.926      Adjusted to redox equilibrium
       Specific Conductance (uS/cm, 25 oC) = 169
                          Density (g/cm3)  =   1.00298
                        Activity of water  =   1.000
                           Ionic strength  =   2.666e-03
                       Mass of water (kg)  =   1.000e+00
                 Total alkalinity (eq/kg)  =   3.513e-17
                    Total carbon (mol/kg)  =   0.000e+00
                       Total CO2 (mol/kg)  =   0.000e+00
                      Temperature (deg C)  =  25.00
                           Pressure (atm)  = 134.11
                  Electrical balance (eq)  =   3.938e-15
 Percent error, 100*(Cat-|An|)/(Cat+|An|)  =   0.00
                               Iterations  =  14
                                  Total H  = 1.110124e+02
                                  Total O  = 5.550909e+01

----------------------------Distribution of species----------------------------

                                            Log       Log         Log     mole V
   Species          Molality    Activity  Molality  Activity     Gamma   cm3/mol

   OH-             1.155e-07   1.091e-07    -6.937    -6.962    -0.025     -3.21
   H+              1.100e-07   1.044e-07    -6.958    -6.981    -0.023      0.00
   H2O             5.551e+01   1.000e+00     1.744    -0.000     0.000     17.96
H(0)          1.944e-39
   H2              9.721e-40   9.727e-40   -39.012   -39.012     0.000     20.00
O(0)          7.121e-15
   O2              3.560e-15   3.562e-15   -14.449   -14.448     0.000     35.00
S(-2)         0.000e+00
   HS-             0.000e+00   0.000e+00  -120.008  -120.032    -0.025     15.05
   H2S             0.000e+00   0.000e+00  -120.118  -120.117     0.000     34.35
   S-2             0.000e+00   0.000e+00  -125.703  -125.800    -0.096     (0)  
S(6)          7.179e-04
   SO4-2           6.665e-04   5.336e-04    -3.176    -3.273    -0.097     15.25
   SrSO4           5.141e-05   5.144e-05    -4.289    -4.289     0.000     12.86
   HSO4-           5.732e-09   5.418e-09    -8.242    -8.266    -0.024     (0)  
Sr            7.179e-04
   Sr+2            6.665e-04   5.346e-04    -3.176    -3.272    -0.096    -16.76
   SrSO4           5.141e-05   5.144e-05    -4.289    -4.289     0.000     12.86
   SrOH+           2.775e-10   2.625e-10    -9.557    -9.581    -0.024     (0)  

------------------------------Saturation indices-------------------------------

	Phase               SI   log IAP   log K(298 K, 134 atm)

	Celestite        -0.00     -6.54   -6.54  SrSO4
	H2(g)           -35.91    -39.01   -3.10  H2
	H2O(g)           -1.46     -0.00    1.46  H2O
	H2S(g)         -119.15   -127.01   -7.86  H2S
	O2(g)           -11.47    -14.45   -2.98  O2
	Sulfur          -89.32    -84.30    5.02  S


Reaction step 4.

Using solution 1.	
Using pure phase assemblage 1.	
Using pressure 1.	

-------------------------------Phase assemblage--------------------------------

                                                      Moles in assemblage
Phase               SI  log IAP  log K(T, P)   Initial       Final       Delta

Celestite        -0.00    -6.49     -6.49    1.000e+01   9.999e+00  -7.681e-04

-----------------------------Solution composition------------------------------

	Elements           Molality       Moles

	S                 7.681e-04   7.681e-04
	Sr                7.681e-04   7.681e-04

----------------------------Description of solution----------------------------

                                       pH  =   6.970      Charge balance
                                       pe  =  10.937      Adjusted to redox equilibrium
       Specific Conductance (uS/cm, 25 oC) = 181
                          Density (g/cm3)  =   1.00592
                        Activity of water  =   1.000
                           Ionic strength  =   2.847e-03
                       Mass of water (kg)  =   1.000e+00
                 Total alkalinity (eq/kg)  =   3.527e-17
                    Total carbon (mol/kg)  =   0.000e+00
                       Total CO2 (mol/kg)  =   0.000e+00
                      Temperature (deg C)  =  25.00
                           Pressure (atm)  = 200.67
                  Electrical balance (eq)  =   5.577e-15
 Percent error, 100*(Cat-|An|)/(Cat+|An|)  =   0.00
                               Iterations  =  14
                                  Total H  = 1.110124e+02
                                  Total O  = 5.550929e+01

----------------------------Distribution of species----------------------------

                                            Log       Log         Log     mole V
   Species          Molality    Activity  Molality  Activity     Gamma   cm3/mol

   OH-             1.191e-07   1.123e-07    -6.924    -6.950    -0.025     -2.96
   H+              1.131e-07   1.072e-07    -6.947    -6.970    -0.023      0.00
   H2O             5.551e+01   1.000e+00     1.744    -0.000     0.000     17.91
H(0)          1.842e-39
   H2              9.212e-40   9.218e-40   -39.036   -39.035     0.000     20.00
O(0)          7.121e-15
   O2              3.561e-15   3.563e-15   -14.448   -14.448     0.000     35.00
S(-2)         0.000e+00
   HS-             0.000e+00   0.000e+00  -120.050  -120.075    -0.025     15.05
   H2S             0.000e+00   0.000e+00  -120.171  -120.171     0.000     34.17
   S-2             0.000e+00   0.000e+00  -125.674  -125.773    -0.099     (0)  
S(6)          7.681e-04
   SO4-2           7.118e-04   5.664e-04    -3.148    -3.247    -0.099     15.91
   SrSO4           5.629e-05   5.632e-05    -4.250    -4.249     0.000     12.92
   HSO4-           6.256e-09   5.904e-09    -8.204    -8.229    -0.025     (0)  
Sr            7.681e-04
   Sr+2            7.118e-04   5.676e-04    -3.148    -3.246    -0.098    -16.10
   SrSO4           5.629e-05   5.632e-05    -4.250    -4.249     0.000     12.92
   SrOH+           2.875e-10   2.715e-10    -9.541    -9.566    -0.025     (0)  

------------------------------Saturation indices-------------------------------

	Phase               SI   log IAP   log K(298 K, 201 atm)

	Celestite        -0.00     -6.49   -6.49  SrSO4
	H2(g)           -35.93    -39.04   -3.10  H2
	H2O(g)           -1.44     -0.00    1.44  H2O
	H2S(g)         -119.25   -127.05   -7.79  H2S
	O2(g)           -11.43    -14.45   -3.02  O2
	Sulfur          -89.44    -84.36    5.08  S


Reaction step 5.

Using solution 1.	
Using pure phase assemblage 1.	
Using pressure 1.	

-------------------------------Phase assemblage--------------------------------

                                                      Moles in assemblage
Phase               SI  log IAP  log K(T, P)   Initial       Final       Delta

Celestite        -0.01    -6.44     -6.44    1.000e+01   9.999e+00  -8.189e-04

-----------------------------Solution composition------------------------------

	Elements           Molality       Moles

	S                 8.189e-04   8.189e-04
	Sr                8.189e-04   8.189e-04

----------------------------Description of solution----------------------------

                                       pH  =   6.959      Charge balance
                                       pe  =  10.948      Adjusted to redox equilibrium
       Specific Conductance (uS/cm, 25 oC) = 192
                          Density (g/cm3)  =   1.00883
                        Activity of water  =   1.000
                           Ionic strength  =   3.029e-03
                       Mass of water (kg)  =   1.000e+00
                 Total alkalinity (eq/kg)  =   3.495e-17
                    Total carbon (mol/kg)  =   0.000e+00
                       Total CO2 (mol/kg)  =   0.000e+00
                      Temperature (deg C)  =  25.00
                           Pressure (atm)  = 267.22
                  Electrical balance (eq)  =   7.789e-15
 Percent error, 100*(Cat-|An|)/(Cat+|An|)  =   0.00
                               Iterations  =  14
                                  Total H  = 1.110124e+02
                                  Total O  = 5.550949e+01

----------------------------Distribution of species----------------------------

                                            Log       Log         Log     mole V
   Species          Molality    Activity  Molality  Activity     Gamma   cm3/mol

   OH-             1.227e-07   1.155e-07    -6.911    -6.937    -0.026     -2.71
   H+              1.162e-07   1.100e-07    -6.935    -6.959    -0.024      0.00
   H2O             5.551e+01   1.000e+00     1.744    -0.000     0.000     17.86
H(0)          1.746e-39
   H2              8.729e-40   8.736e-40   -39.059   -39.059     0.000     20.00
O(0)          7.120e-15
   O2              3.560e-15   3.563e-15   -14.449   -14.448     0.000     35.00
S(-2)         0.000e+00
   HS-             0.000e+00   0.000e+00  -120.092  -120.118    -0.026     15.05
   H2S             0.000e+00   0.000e+00  -120.225  -120.225     0.000     33.99
   S-2             0.000e+00   0.000e+00  -125.646  -125.747    -0.102     (0)  
S(6)          8.189e-04
   SO4-2           7.573e-04   5.991e-04    -3.121    -3.223    -0.102     16.58
   SrSO4           6.161e-05   6.165e-05    -4.210    -4.210     0.000     12.99
   HSO4-           6.797e-09   6.404e-09    -8.168    -8.194    -0.026     (0)  
Sr            8.189e-04
   Sr+2            7.573e-04   6.003e-04    -3.121    -3.222    -0.101    -15.43
   SrSO4           6.161e-05   6.165e-05    -4.210    -4.210     0.000     12.99
   SrOH+           2.969e-10   2.800e-10    -9.527    -9.553    -0.025     (0)  

------------------------------Saturation indices-------------------------------

	Phase               SI   log IAP   log K(298 K, 267 atm)

	Celestite         0.00     -6.44   -6.44  SrSO4
	H2(g)           -35.96    -39.06   -3.10  H2
	H2O(g)           -1.42     -0.00    1.42  H2O
	H2S(g)         -119.34   -127.08   -7.73  H2S
	O2(g)           -11.39    -14.45   -3.06  O2
	Sulfur          -89.55    -84.41    5.14  S


Reaction step 6.

Using solution 1.	
Using pure phase assemblage 1.	
Using pressure 1.	

-------------------------------Phase assemblage--------------------------------

                                                      Moles in assemblage
Phase               SI  log IAP  log K(T, P)   Initial       Final       Delta

Celestite        -0.01    -6.40     -6.39    1.000e+01   9.999e+00  -8.699e-04

-----------------------------Solution composition------------------------------

	Elements           Molality       Moles

	S                 8.699e-04   8.699e-04
	Sr                8.699e-04   8.699e-04

----------------------------Description of solution----------------------------

                                       pH  =   6.948      Charge balance
                                       pe  =  10.959      Adjusted to redox equilibrium
       Specific Conductance (uS/cm, 25 oC) = 203
                          Density (g/cm3)  =   1.01169
                        Activity of water  =   1.000
                           Ionic strength  =   3.210e-03
                       Mass of water (kg)  =   1.000e+00
                 Total alkalinity (eq/kg)  =   3.469e-17
                    Total carbon (mol/kg)  =   0.000e+00
                       Total CO2 (mol/kg)  =   0.000e+00
                      Temperature (deg C)  =  25.00
                           Pressure (atm)  = 333.78
                  Electrical balance (eq)  =   1.074e-14
 Percent error, 100*(Cat-|An|)/(Cat+|An|)  =   0.00
                               Iterations  =  14
                                  Total H  = 1.110124e+02
                                  Total O  = 5.550970e+01

----------------------------Distribution of species----------------------------

                                            Log       Log         Log     mole V
   Species          Molality    Activity  Molality  Activity     Gamma   cm3/mol

   OH-             1.262e-07   1.187e-07    -6.899    -6.926    -0.027     -2.46
   H+              1.192e-07   1.127e-07    -6.924    -6.948    -0.024      0.00
   H2O             5.551e+01   1.000e+00     1.744    -0.000     0.000     17.81
H(0)          1.654e-39
   H2              8.269e-40   8.275e-40   -39.083   -39.082     0.000     20.00
O(0)          7.121e-15
   O2              3.561e-15   3.563e-15   -14.448   -14.448     0.000     35.00
S(-2)         0.000e+00
   HS-             0.000e+00   0.000e+00  -120.135  -120.162    -0.027     15.05
   H2S             0.000e+00   0.000e+00  -120.280  -120.279     0.000     33.81
   S-2             0.000e+00   0.000e+00  -125.620  -125.724    -0.104     (0)  
S(6)          8.699e-04
   SO4-2           8.025e-04   6.313e-04    -3.096    -3.200    -0.104     17.25
   SrSO4           6.740e-05   6.745e-05    -4.171    -4.171     0.000     13.06
   HSO4-           7.351e-09   6.917e-09    -8.134    -8.160    -0.026     (0)  
Sr            8.699e-04
   Sr+2            8.025e-04   6.327e-04    -3.096    -3.199    -0.103    -14.76
   SrSO4           6.740e-05   6.745e-05    -4.171    -4.171     0.000     13.06
   SrOH+           3.057e-10   2.879e-10    -9.515    -9.541    -0.026     (0)  

------------------------------Saturation indices-------------------------------

	Phase               SI   log IAP   log K(298 K, 334 atm)

	Celestite         0.00     -6.40   -6.40  SrSO4
	H2(g)           -35.98    -39.08   -3.10  H2
	H2O(g)           -1.40     -0.00    1.40  H2O
	H2S(g)         -119.44   -127.11   -7.67  H2S
	O2(g)           -11.35    -14.45   -3.10  O2
	Sulfur          -89.67    -84.47    5.20  S


Reaction step 7.

Using solution 1.	
Using pure phase assemblage 1.	
Using pressure 1.	

-------------------------------Phase assemblage--------------------------------

                                                      Moles in assemblage
Phase               SI  log IAP  log K(T, P)   Initial       Final       Delta

Celestite        -0.01    -6.36     -6.35    1.000e+01   9.999e+00  -9.208e-04

-----------------------------Solution composition------------------------------

	Elements           Molality       Moles

	S                 9.208e-04   9.208e-04
	Sr                9.208e-04   9.208e-04

----------------------------Description of solution----------------------------

                                       pH  =   6.938      Charge balance
                                       pe  =  10.969      Adjusted to redox equilibrium
       Specific Conductance (uS/cm, 25 oC) = 213
                          Density (g/cm3)  =   1.01453
                        Activity of water  =   1.000
                           Ionic strength  =   3.388e-03
                       Mass of water (kg)  =   1.000e+00
                 Total alkalinity (eq/kg)  =   3.437e-17
                    Total carbon (mol/kg)  =   0.000e+00
                       Total CO2 (mol/kg)  =   0.000e+00
                      Temperature (deg C)  =  25.00
                           Pressure (atm)  = 400.33
                  Electrical balance (eq)  =   1.458e-14
 Percent error, 100*(Cat-|An|)/(Cat+|An|)  =   0.00
                               Iterations  =  14
                                  Total H  = 1.110124e+02
                                  Total O  = 5.550990e+01

----------------------------Distribution of species----------------------------

                                            Log       Log         Log     mole V
   Species          Molality    Activity  Molality  Activity     Gamma   cm3/mol

   OH-             1.298e-07   1.219e-07    -6.887    -6.914    -0.027     -2.20
   H+              1.222e-07   1.154e-07    -6.913    -6.938    -0.025      0.00
   H2O             5.551e+01   1.000e+00     1.744    -0.000     0.000     17.76
H(0)          1.566e-39
   H2              7.831e-40   7.837e-40   -39.106   -39.106     0.000     20.00
O(0)          7.121e-15
   O2              3.561e-15   3.563e-15   -14.448   -14.448     0.000     35.00
S(-2)         0.000e+00
   HS-             0.000e+00   0.000e+00  -120.179  -120.206    -0.027     15.05
   H2S             0.000e+00   0.000e+00  -120.334  -120.334     0.000     33.63
   S-2             0.000e+00   0.000e+00  -125.597  -125.703    -0.106     (0)  
S(6)          9.208e-04
   SO4-2           8.471e-04   6.629e-04    -3.072    -3.179    -0.106     17.92
   SrSO4           7.372e-05   7.378e-05    -4.132    -4.132     0.000     13.12
   HSO4-           7.915e-09   7.437e-09    -8.102    -8.129    -0.027     (0)  
Sr            9.208e-04
   Sr+2            8.471e-04   6.644e-04    -3.072    -3.178    -0.105    -14.10
   SrSO4           7.372e-05   7.378e-05    -4.132    -4.132     0.000     13.12
   SrOH+           3.139e-10   2.953e-10    -9.503    -9.530    -0.027     (0)  

------------------------------Saturation indices-------------------------------

	Phase               SI   log IAP   log K(298 K, 400 atm)

	Celestite        -0.00     -6.36   -6.36  SrSO4
	H2(g)           -36.00    -39.11   -3.10  H2
	H2O(g)           -1.38     -0.00    1.38  H2O
	H2S(g)         -119.53   -127.14   -7.62  H2S
	O2(g)           -11.30    -14.45   -3.14  O2
	Sulfur          -89.78    -84.52    5.26  S


Reaction step 8.

Using solution 1.	
Using pure phase assemblage 1.	
Using pressure 1.	

-------------------------------Phase assemblage--------------------------------

                                                      Moles in assemblage
Phase               SI  log IAP  log K(T, P)   Initial       Final       Delta

Celestite        -0.01    -6.32     -6.31    1.000e+01   9.999e+00  -9.712e-04

-----------------------------Solution composition------------------------------

	Elements           Molality       Moles

	S                 9.712e-04   9.712e-04
	Sr                9.712e-04   9.712e-04

----------------------------Description of solution----------------------------

                                       pH  =   6.928      Charge balance
                                       pe  =  10.979      Adjusted to redox equilibrium
       Specific Conductance (uS/cm, 25 oC) = 224
                          Density (g/cm3)  =   1.01733
                        Activity of water  =   1.000
                           Ionic strength  =   3.562e-03
                       Mass of water (kg)  =   1.000e+00
                 Total alkalinity (eq/kg)  =   3.448e-17
                    Total carbon (mol/kg)  =   0.000e+00
                       Total CO2 (mol/kg)  =   0.000e+00
                      Temperature (deg C)  =  25.00
                           Pressure (atm)  = 466.89
                  Electrical balance (eq)  =   1.951e-14
 Percent error, 100*(Cat-|An|)/(Cat+|An|)  =   0.00
                               Iterations  =  14
                                  Total H  = 1.110124e+02
                                  Total O  = 5.551010e+01

----------------------------Distribution of species----------------------------

                                            Log       Log         Log     mole V
   Species          Molality    Activity  Molality  Activity     Gamma   cm3/mol

   OH-             1.333e-07   1.251e-07    -6.875    -6.903    -0.028     -1.95
   H+              1.252e-07   1.181e-07    -6.902    -6.928    -0.025      0.00
   H2O             5.551e+01   1.000e+00     1.744    -0.000     0.000     17.71
H(0)          1.483e-39
   H2              7.414e-40   7.420e-40   -39.130   -39.130     0.000     20.00
O(0)          7.121e-15
   O2              3.560e-15   3.563e-15   -14.449   -14.448     0.000     35.00
S(-2)         0.000e+00
   HS-             0.000e+00   0.000e+00  -120.222  -120.250    -0.028     15.05
   H2S             0.000e+00   0.000e+00  -120.389  -120.388     0.000     33.45
   S-2             0.000e+00   0.000e+00  -125.575  -125.684    -0.108     (0)  
S(6)          9.712e-04
   SO4-2           8.906e-04   6.935e-04    -3.050    -3.159    -0.109     18.59
   SrSO4           8.060e-05   8.067e-05    -4.094    -4.093     0.000     13.19
   HSO4-           8.484e-09   7.962e-09    -8.071    -8.099    -0.028     (0)  
Sr            9.712e-04
   Sr+2            8.906e-04   6.952e-04    -3.050    -3.158    -0.108    -13.43
   SrSO4           8.060e-05   8.067e-05    -4.094    -4.093     0.000     13.19
   SrOH+           3.214e-10   3.019e-10    -9.493    -9.520    -0.027     (0)  

------------------------------Saturation indices-------------------------------

	Phase               SI   log IAP   log K(298 K, 467 atm)

	Celestite         0.00     -6.32   -6.32  SrSO4
	H2(g)           -36.03    -39.13   -3.10  H2
	H2O(g)           -1.36     -0.00    1.36  H2O
	H2S(g)         -119.62   -127.18   -7.56  H2S
	O2(g)           -11.26    -14.45   -3.19  O2
	Sulfur          -89.89    -84.57    5.31  S


Reaction step 9.

Using solution 1.	
Using pure phase assemblage 1.	
Using pressure 1.	

-------------------------------Phase assemblage--------------------------------

                                                      Moles in assemblage
Phase               SI  log IAP  log K(T, P)   Initial       Final       Delta

Celestite        -0.01    -6.28     -6.27    1.000e+01   9.999e+00  -1.021e-03

-----------------------------Solution composition------------------------------

	Elements           Molality       Moles

	S                 1.021e-03   1.021e-03
	Sr                1.021e-03   1.021e-03

----------------------------Description of solution----------------------------

                                       pH  =   6.918      Charge balance
                                       pe  =  10.989      Adjusted to redox equilibrium
       Specific Conductance (uS/cm, 25 oC) = 234
                          Density (g/cm3)  =   1.02009
                        Activity of water  =   1.000
                           Ionic strength  =   3.730e-03
                       Mass of water (kg)  =   1.000e+00
                 Total alkalinity (eq/kg)  =   3.420e-17
                    Total carbon (mol/kg)  =   0.000e+00
                       Total CO2 (mol/kg)  =   0.000e+00
                      Temperature (deg C)  =  25.00
                           Pressure (atm)  = 533.44
                  Electrical balance (eq)  =   2.571e-14
 Percent error, 100*(Cat-|An|)/(Cat+|An|)  =   0.00
                               Iterations  =  14
                                  Total H  = 1.110124e+02
                                  Total O  = 5.551030e+01

----------------------------Distribution of species----------------------------

                                            Log       Log         Log     mole V
   Species          Molality    Activity  Molality  Activity     Gamma   cm3/mol

   OH-             1.368e-07   1.282e-07    -6.864    -6.892    -0.028     -1.70
   H+              1.281e-07   1.207e-07    -6.892    -6.918    -0.026      0.00
   H2O             5.551e+01   1.000e+00     1.744    -0.000     0.000     17.66
H(0)          1.404e-39
   H2              7.018e-40   7.024e-40   -39.154   -39.153     0.000     20.00
O(0)          7.121e-15
   O2              3.560e-15   3.563e-15   -14.449   -14.448     0.000     35.00
S(-2)         0.000e+00
   HS-             0.000e+00   0.000e+00  -120.266  -120.295    -0.028     15.05
   H2S             0.000e+00   0.000e+00  -120.444  -120.443     0.000     33.27
   S-2             0.000e+00   0.000e+00  -125.556  -125.666    -0.110     (0)  
S(6)          1.021e-03
   SO4-2           9.326e-04   7.229e-04    -3.030    -3.141    -0.111     19.25
   SrSO4           8.809e-05   8.817e-05    -4.055    -4.055     0.000     13.26
   HSO4-           9.053e-09   8.486e-09    -8.043    -8.071    -0.028     (0)  
Sr            1.021e-03
   Sr+2            9.326e-04   7.248e-04    -3.030    -3.140    -0.109    -12.77
   SrSO4           8.809e-05   8.817e-05    -4.055    -4.055     0.000     13.26
   SrOH+           3.281e-10   3.078e-10    -9.484    -9.512    -0.028     (0)  

------------------------------Saturation indices-------------------------------

	Phase               SI   log IAP   log K(298 K, 533 atm)

	Celestite        -0.00     -6.28   -6.28  SrSO4
	H2(g)           -36.05    -39.15   -3.10  H2
	H2O(g)           -1.34     -0.00    1.34  H2O
	H2S(g)         -119.71   -127.21   -7.51  H2S
	O2(g)           -11.22    -14.45   -3.23  O2
	Sulfur          -90.00    -84.63    5.37  S


Reaction step 10.

Using solution 1.	
Using pure phase assemblage 1.	
Using pressure 1.	

-------------------------------Phase assemblage--------------------------------

                                                      Moles in assemblage
Phase               SI  log IAP  log K(T, P)   Initial       Final       Delta

Celestite        -0.01    -6.25     -6.23    1.000e+01   9.999e+00  -1.069e-03

-----------------------------Solution composition------------------------------

	Elements           Molality       Moles

	S                 1.069e-03   1.069e-03
	Sr                1.069e-03   1.069e-03

----------------------------Description of solution----------------------------

                                       pH  =   6.909      Charge balance
                                       pe  =  10.999      Adjusted to redox equilibrium
       Specific Conductance (uS/cm, 25 oC) = 244
                          Density (g/cm3)  =   1.02282
                        Activity of water  =   1.000
                           Ionic strength  =   3.891e-03
                       Mass of water (kg)  =   1.000e+00
                 Total alkalinity (eq/kg)  =   3.572e-17
                    Total carbon (mol/kg)  =   0.000e+00
                       Total CO2 (mol/kg)  =   0.000e+00
                      Temperature (deg C)  =  25.00
                           Pressure (atm)  = 600.00
                  Electrical balance (eq)  =  -1.789e-15
 Percent error, 100*(Cat-|An|)/(Cat+|An|)  =  -0.00
                               Iterations  =  14
                                  Total H  = 1.110124e+02
                                  Total O  = 5.551049e+01

----------------------------Distribution of species----------------------------

                                            Log       Log         Log     mole V
   Species          Molality    Activity  Molality  Activity     Gamma   cm3/mol

   OH-             1.403e-07   1.313e-07    -6.853    -6.882    -0.029     -1.45
   H+              1.310e-07   1.234e-07    -6.883    -6.909    -0.026      0.00
   H2O             5.551e+01   1.000e+00     1.744    -0.000     0.000     17.62
H(0)          1.328e-39
   H2              6.641e-40   6.647e-40   -39.178   -39.177     0.000     20.00
O(0)          7.121e-15
   O2              3.560e-15   3.564e-15   -14.448   -14.448     0.000     35.00
S(-2)         0.000e+00
   HS-             0.000e+00   0.000e+00  -120.311  -120.340    -0.029     15.05
   H2S             0.000e+00   0.000e+00  -120.499  -120.499     0.000     33.10
   S-2             0.000e+00   0.000e+00  -125.539  -125.651    -0.112     (0)  
S(6)          1.069e-03
   SO4-2           9.727e-04   7.509e-04    -3.012    -3.124    -0.112     19.92
   SrSO4           9.624e-05   9.633e-05    -4.017    -4.016     0.000     13.32
   HSO4-           9.618e-09   9.006e-09    -8.017    -8.045    -0.029     (0)  
Sr            1.069e-03
   Sr+2            9.727e-04   7.529e-04    -3.012    -3.123    -0.111    -12.10
   SrSO4           9.624e-05   9.633e-05    -4.017    -4.016     0.000     13.32
   SrOH+           3.339e-10   3.130e-10    -9.476    -9.504    -0.028     (0)  

------------------------------Saturation indices-------------------------------

	Phase               SI   log IAP   log K(298 K, 600 atm)

	Celestite         0.00     -6.25   -6.25  SrSO4
	H2(g)           -36.08    -39.18   -3.10  H2
	H2O(g)           -1.32     -0.00    1.32  H2O
	H2S(g)         -119.79   -127.25   -7.45  H2S
	O2(g)           -11.18    -14.45   -3.27  O2
	Sulfur          -90.10    -84.68    5.42  S


------------------
End of simulation.
------------------

------------------------------------
Reading input data for simulation 2.
------------------------------------

	SOLUTION 1
	 pH 7 charge
	  temp 100
	USE reaction_pressure 1
	 USE equilibrium_phases 1
	END
-------------------------------------------
Beginning of initial solution calculations.
-------------------------------------------

Initial solution 1.	

-----------------------------Solution composition------------------------------

	Elements           Molality       Moles

	Pure water     

----------------------------Description of solution----------------------------

                                       pH  =   6.126      Charge balance
                                       pe  =   4.000    
       Specific Conductance (uS/cm, 100 oC) = 1
                          Density (g/cm3)  =   0.95834
                        Activity of water  =   1.000
                           Ionic strength  =   7.499e-07
                       Mass of water (kg)  =   1.000e+00
                 Total alkalinity (eq/kg)  =  -8.540e-17
                    Total carbon (mol/kg)  =   0.000e+00
                       Total CO2 (mol/kg)  =   0.000e+00
                      Temperature (deg C)  = 100.00
                  Electrical balance (eq)  =   8.540e-17
 Percent error, 100*(Cat-|An|)/(Cat+|An|)  =   0.00
                               Iterations  =   5
                                  Total H  = 1.110124e+02
                                  Total O  = 5.550622e+01

----------------------------Distribution of species----------------------------

                                            Log       Log         Log     mole V
   Species          Molality    Activity  Molality  Activity     Gamma   cm3/mol

   H+              7.499e-07   7.490e-07    -6.125    -6.126    -0.001      0.00
   OH-             7.499e-07   7.490e-07    -6.125    -6.126    -0.001     -7.70
   H2O             5.551e+01   1.000e+00     1.744    -0.000     0.000     18.80
H(0)          4.374e-24
   H2              2.187e-24   2.187e-24   -23.660   -23.660     0.000     20.00
O(0)          3.809e-26
   O2              1.905e-26   1.905e-26   -25.720   -25.720     0.000     35.00

------------------------------Saturation indices-------------------------------

	Phase               SI   log IAP   log K(373 K,   1 atm)

	H2(g)           -20.56    -23.66   -3.10  H2
	H2O(g)           -0.00     -0.00    0.00  H2O
	O2(g)           -22.61    -25.72   -3.11  O2


-----------------------------------------
Beginning of batch-reaction calculations.
-----------------------------------------

Reaction step 1.

Using solution 1.	
Using pure phase assemblage 1.	
Using pressure 1.	

-------------------------------Phase assemblage--------------------------------

                                                      Moles in assemblage
Phase               SI  log IAP  log K(T, P)   Initial       Final       Delta

Celestite         0.00    -7.15     -7.15    1.000e+01   1.000e+01  -3.478e-04

-----------------------------Solution composition------------------------------

	Elements           Molality       Moles

	S                 3.478e-04   3.478e-04
	Sr                3.478e-04   3.478e-04

----------------------------Description of solution----------------------------

                                       pH  =   6.163      Charge balance
                                       pe  =  -0.791      Adjusted to redox equilibrium
       Specific Conductance (uS/cm, 100 oC) = 262
                          Density (g/cm3)  =   0.95841
                        Activity of water  =   1.000
                           Ionic strength  =   1.280e-03
                       Mass of water (kg)  =   1.000e+00
                 Total alkalinity (eq/kg)  =  -1.007e-16
                    Total carbon (mol/kg)  =   0.000e+00
                       Total CO2 (mol/kg)  =   0.000e+00
                      Temperature (deg C)  = 100.00
                  Electrical balance (eq)  =   3.599e-13
 Percent error, 100*(Cat-|An|)/(Cat+|An|)  =   0.00
                               Iterations  =  13
                                  Total H  = 1.110124e+02
                                  Total O  = 5.550761e+01

----------------------------Distribution of species----------------------------

                                            Log       Log         Log     mole V
   Species          Molality    Activity  Molality  Activity     Gamma   cm3/mol

   OH-             8.557e-07   8.161e-07    -6.068    -6.088    -0.021     -7.63
   H+              7.187e-07   6.874e-07    -6.143    -6.163    -0.019      0.00
   H2O             5.551e+01   1.000e+00     1.744    -0.000     0.000     18.80
H(0)          1.406e-14
   H2              7.030e-15   7.032e-15   -14.153   -14.153     0.000     20.00
O(0)          0.000e+00
   O2              0.000e+00   0.000e+00   -44.735   -44.735     0.000     35.00
S(-2)         3.963e-28
   H2S             2.715e-28   2.715e-28   -27.566   -27.566     0.000     39.10
   HS-             1.249e-28   1.191e-28   -27.903   -27.924    -0.021     15.07
   S-2             1.529e-33   1.269e-33   -32.816   -32.897    -0.081     (0)  
S(6)          3.478e-04
   SO4-2           3.198e-04   2.654e-04    -3.495    -3.576    -0.081      6.44
   SrSO4           2.785e-05   2.786e-05    -4.555    -4.555     0.000      2.60
   HSO4-           1.371e-07   1.307e-07    -6.863    -6.884    -0.021     (0)  
Sr            3.478e-04
   Sr+2            3.200e-04   2.658e-04    -3.495    -3.575    -0.081     -9.08
   SrSO4           2.785e-05   2.786e-05    -4.555    -4.555     0.000      2.60
   SrOH+           2.078e-11   1.983e-11   -10.682   -10.703    -0.020     (0)  

------------------------------Saturation indices-------------------------------

	Phase               SI   log IAP   log K(373 K,   1 atm)

	Celestite         0.00     -7.15   -7.15  SrSO4
	H2(g)           -11.05    -14.15   -3.10  H2
	H2O(g)           -0.01     -0.00    0.00  H2O
	H2S(g)          -26.14    -34.09   -7.94  H2S
	O2(g)           -41.62    -44.73   -3.11  O2
	Sulfur          -20.30    -16.82    3.48  S


Reaction step 2.

Using solution 1.	
Using pure phase assemblage 1.	
Using pressure 1.	

-------------------------------Phase assemblage--------------------------------

                                                      Moles in assemblage
Phase               SI  log IAP  log K(T, P)   Initial       Final       Delta

Celestite        -0.00    -7.11     -7.11    1.000e+01   1.000e+01  -3.690e-04

-----------------------------Solution composition------------------------------

	Elements           Molality       Moles

	S                 3.690e-04   3.690e-04
	Sr                3.690e-04   3.690e-04

----------------------------Description of solution----------------------------

                                       pH  =   6.152      Charge balance
                                       pe  =  -0.790      Adjusted to redox equilibrium
       Specific Conductance (uS/cm, 100 oC) = 276
                          Density (g/cm3)  =   0.96154
                        Activity of water  =   1.000
                           Ionic strength  =   1.354e-03
                       Mass of water (kg)  =   1.000e+00
                 Total alkalinity (eq/kg)  =  -1.033e-16
                    Total carbon (mol/kg)  =   0.000e+00
                       Total CO2 (mol/kg)  =   0.000e+00
                      Temperature (deg C)  = 100.00
                           Pressure (atm)  = 67.56
                  Electrical balance (eq)  =   4.118e-13
 Percent error, 100*(Cat-|An|)/(Cat+|An|)  =   0.00
                               Iterations  =  13
                                  Total H  = 1.110124e+02
                                  Total O  = 5.550769e+01

----------------------------Distribution of species----------------------------

                                            Log       Log         Log     mole V
   Species          Molality    Activity  Molality  Activity     Gamma   cm3/mol

   OH-             8.850e-07   8.431e-07    -6.053    -6.074    -0.021     -7.38
   H+              7.370e-07   7.042e-07    -6.133    -6.152    -0.020      0.00
   H2O             5.551e+01   1.000e+00     1.744    -0.000     0.000     18.74
H(0)          1.406e-14
   H2              7.030e-15   7.032e-15   -14.153   -14.153     0.000     20.00
O(0)          0.000e+00
   O2              0.000e+00   0.000e+00   -44.770   -44.770     0.000     35.00
S(-2)         4.173e-28
   H2S             2.832e-28   2.833e-28   -27.548   -27.548     0.000     38.92
   HS-             1.341e-28   1.277e-28   -27.873   -27.894    -0.021     15.07
   S-2             1.924e-33   1.590e-33   -32.716   -32.799    -0.083     (0)  
S(6)          3.690e-04
   SO4-2           3.382e-04   2.795e-04    -3.471    -3.554    -0.083      7.11
   SrSO4           3.063e-05   3.064e-05    -4.514    -4.514     0.000      2.67
   HSO4-           1.480e-07   1.411e-07    -6.830    -6.851    -0.021     (0)  
Sr            3.690e-04
   Sr+2            3.384e-04   2.800e-04    -3.471    -3.553    -0.082     -8.42
   SrSO4           3.063e-05   3.064e-05    -4.514    -4.514     0.000      2.67
   SrOH+           2.138e-11   2.039e-11   -10.670   -10.691    -0.021     (0)  

------------------------------Saturation indices-------------------------------

	Phase               SI   log IAP   log K(373 K,  68 atm)

	Celestite        -0.00     -7.11   -7.11  SrSO4
	H2(g)           -11.05    -14.15   -3.10  H2
	H2O(g)            0.01     -0.00   -0.01  H2O
	H2S(g)          -26.17    -34.05   -7.88  H2S
	O2(g)           -41.62    -44.77   -3.15  O2
	Sulfur          -20.37    -16.82    3.55  S


Reaction step 3.

Using solution 1.	
Using pure phase assemblage 1.	
Using pressure 1.	

-------------------------------Phase assemblage--------------------------------

                                                      Moles in assemblage
Phase               SI  log IAP  log K(T, P)   Initial       Final       Delta

Celestite        -0.00    -7.06     -7.06    1.000e+01   1.000e+01  -3.904e-04

-----------------------------Solution composition------------------------------

	Elements           Molality       Moles

	S                 3.904e-04   3.904e-04
	Sr                3.904e-04   3.904e-04

----------------------------Description of solution----------------------------

                                       pH  =   6.142      Charge balance
                                       pe  =  -0.789      Adjusted to redox equilibrium
       Specific Conductance (uS/cm, 100 oC) = 291
                          Density (g/cm3)  =   0.96463
                        Activity of water  =   1.000
                           Ionic strength  =   1.428e-03
                       Mass of water (kg)  =   1.000e+00
                 Total alkalinity (eq/kg)  =  -1.061e-16
                    Total carbon (mol/kg)  =   0.000e+00
                       Total CO2 (mol/kg)  =   0.000e+00
                      Temperature (deg C)  = 100.00
                           Pressure (atm)  = 134.11
                  Electrical balance (eq)  =   4.569e-13
 Percent error, 100*(Cat-|An|)/(Cat+|An|)  =   0.00
                               Iterations  =  13
                                  Total H  = 1.110124e+02
                                  Total O  = 5.550778e+01

----------------------------Distribution of species----------------------------

                                            Log       Log         Log     mole V
   Species          Molality    Activity  Molality  Activity     Gamma   cm3/mol

   OH-             9.145e-07   8.704e-07    -6.039    -6.060    -0.021     -7.13
   H+              7.552e-07   7.210e-07    -6.122    -6.142    -0.020      0.00
   H2O             5.551e+01   1.000e+00     1.744    -0.000     0.000     18.68
H(0)          1.406e-14
   H2              7.030e-15   7.032e-15   -14.153   -14.153     0.000     20.00
O(0)          0.000e+00
   O2              0.000e+00   0.000e+00   -44.806   -44.806     0.000     35.00
S(-2)         4.394e-28
   H2S             2.955e-28   2.956e-28   -27.529   -27.529     0.000     38.74
   HS-             1.439e-28   1.370e-28   -27.842   -27.863    -0.021     15.07
   S-2             2.413e-33   1.987e-33   -32.617   -32.702    -0.084     (0)  
S(6)          3.904e-04
   SO4-2           3.566e-04   2.936e-04    -3.448    -3.532    -0.084      7.77
   SrSO4           3.367e-05   3.368e-05    -4.473    -4.473     0.000      2.73
   HSO4-           1.593e-07   1.517e-07    -6.798    -6.819    -0.021     (0)  
Sr            3.904e-04
   Sr+2            3.567e-04   2.940e-04    -3.448    -3.532    -0.084     -7.75
   SrSO4           3.367e-05   3.368e-05    -4.473    -4.473     0.000      2.73
   SrOH+           2.195e-11   2.091e-11   -10.658   -10.680    -0.021     (0)  

------------------------------Saturation indices-------------------------------

	Phase               SI   log IAP   log K(373 K, 134 atm)

	Celestite        -0.00     -7.06   -7.06  SrSO4
	H2(g)           -11.05    -14.15   -3.10  H2
	H2O(g)            0.03     -0.00   -0.03  H2O
	H2S(g)          -26.19    -34.01   -7.82  H2S
	O2(g)           -41.62    -44.81   -3.19  O2
	Sulfur          -20.43    -16.82    3.61  S


Reaction step 4.

Using solution 1.	
Using pure phase assemblage 1.	
Using pressure 1.	

-------------------------------Phase assemblage--------------------------------

                                                      Moles in assemblage
Phase               SI  log IAP  log K(T, P)   Initial       Final       Delta

Celestite        -0.00    -7.02     -7.02    1.000e+01   1.000e+01  -4.119e-04

-----------------------------Solution composition------------------------------

	Elements           Molality       Moles

	S                 4.119e-04   4.119e-04
	Sr                4.119e-04   4.119e-04

----------------------------Description of solution----------------------------

                                       pH  =   6.132      Charge balance
                                       pe  =  -0.788      Adjusted to redox equilibrium
       Specific Conductance (uS/cm, 100 oC) = 305
                          Density (g/cm3)  =   0.96767
                        Activity of water  =   1.000
                           Ionic strength  =   1.500e-03
                       Mass of water (kg)  =   1.000e+00
                 Total alkalinity (eq/kg)  =  -1.083e-16
                    Total carbon (mol/kg)  =   0.000e+00
                       Total CO2 (mol/kg)  =   0.000e+00
                      Temperature (deg C)  = 100.00
                           Pressure (atm)  = 200.67
                  Electrical balance (eq)  =   4.912e-13
 Percent error, 100*(Cat-|An|)/(Cat+|An|)  =   0.00
                               Iterations  =  13
                                  Total H  = 1.110124e+02
                                  Total O  = 5.550787e+01

----------------------------Distribution of species----------------------------

                                            Log       Log         Log     mole V
   Species          Molality    Activity  Molality  Activity     Gamma   cm3/mol

   OH-             9.443e-07   8.978e-07    -6.025    -6.047    -0.022     -6.87
   H+              7.734e-07   7.378e-07    -6.112    -6.132    -0.020      0.00
   H2O             5.551e+01   1.000e+00     1.744    -0.000     0.000     18.62
H(0)          1.406e-14
   H2              7.030e-15   7.032e-15   -14.153   -14.153     0.000     20.00
O(0)          0.000e+00
   O2              0.000e+00   0.000e+00   -44.842   -44.842     0.000     35.00
S(-2)         4.632e-28
   H2S             3.086e-28   3.087e-28   -27.511   -27.510     0.000     38.56
   HS-             1.546e-28   1.470e-28   -27.811   -27.833    -0.022     15.07
   S-2             3.018e-33   2.476e-33   -32.520   -32.606    -0.086     (0)  
S(6)          4.119e-04
   SO4-2           3.748e-04   3.074e-04    -3.426    -3.512    -0.086      8.44
   SrSO4           3.701e-05   3.702e-05    -4.432    -4.432     0.000      2.80
   HSO4-           1.709e-07   1.625e-07    -6.767    -6.789    -0.022     (0)  
Sr            4.119e-04
   Sr+2            3.749e-04   3.079e-04    -3.426    -3.512    -0.086     -7.09
   SrSO4           3.701e-05   3.702e-05    -4.432    -4.432     0.000      2.80
   SrOH+           2.249e-11   2.140e-11   -10.648   -10.670    -0.021     (0)  

------------------------------Saturation indices-------------------------------

	Phase               SI   log IAP   log K(373 K, 201 atm)

	Celestite         0.00     -7.02   -7.02  SrSO4
	H2(g)           -11.05    -14.15   -3.10  H2
	H2O(g)            0.05     -0.00   -0.05  H2O
	H2S(g)          -26.21    -33.96   -7.76  H2S
	O2(g)           -41.62    -44.84   -3.22  O2
	Sulfur          -20.49    -16.82    3.67  S


Reaction step 5.

Using solution 1.	
Using pure phase assemblage 1.	
Using pressure 1.	

-------------------------------Phase assemblage--------------------------------

                                                      Moles in assemblage
Phase               SI  log IAP  log K(T, P)   Initial       Final       Delta

Celestite        -0.01    -6.99     -6.98    1.000e+01   1.000e+01  -4.335e-04

-----------------------------Solution composition------------------------------

	Elements           Molality       Moles

	S                 4.335e-04   4.335e-04
	Sr                4.335e-04   4.335e-04

----------------------------Description of solution----------------------------

                                       pH  =   6.122      Charge balance
                                       pe  =  -0.788      Adjusted to redox equilibrium
       Specific Conductance (uS/cm, 100 oC) = 319
                          Density (g/cm3)  =   0.97066
                        Activity of water  =   1.000
                           Ionic strength  =   1.572e-03
                       Mass of water (kg)  =   1.000e+00
                 Total alkalinity (eq/kg)  =  -1.074e-16
                    Total carbon (mol/kg)  =   0.000e+00
                       Total CO2 (mol/kg)  =   0.000e+00
                      Temperature (deg C)  = 100.00
                           Pressure (atm)  = 267.22
                  Electrical balance (eq)  =   5.822e-13
 Percent error, 100*(Cat-|An|)/(Cat+|An|)  =   0.00
                               Iterations  =  13
                                  Total H  = 1.110124e+02
                                  Total O  = 5.550795e+01

----------------------------Distribution of species----------------------------

                                            Log       Log         Log     mole V
   Species          Molality    Activity  Molality  Activity     Gamma   cm3/mol

   OH-             9.742e-07   9.255e-07    -6.011    -6.034    -0.022     -6.62
   H+              7.916e-07   7.546e-07    -6.101    -6.122    -0.021      0.00
   H2O             5.551e+01   1.000e+00     1.744    -0.000     0.000     18.56
H(0)          1.406e-14
   H2              7.030e-15   7.032e-15   -14.153   -14.153     0.000     20.00
O(0)          0.000e+00
   O2              0.000e+00   0.000e+00   -44.878   -44.878     0.000     35.00
S(-2)         4.886e-28
   H2S             3.225e-28   3.226e-28   -27.492   -27.491     0.000     38.38
   HS-             1.662e-28   1.579e-28   -27.779   -27.802    -0.022     15.07
   S-2             3.763e-33   3.077e-33   -32.424   -32.512    -0.088     (0)  
S(6)          4.335e-04
   SO4-2           3.926e-04   3.209e-04    -3.406    -3.494    -0.088      9.10
   SrSO4           4.066e-05   4.068e-05    -4.391    -4.391     0.000      2.87
   HSO4-           1.826e-07   1.735e-07    -6.738    -6.761    -0.022     (0)  
Sr            4.335e-04
   Sr+2            3.928e-04   3.215e-04    -3.406    -3.493    -0.087     -6.42
   SrSO4           4.066e-05   4.068e-05    -4.391    -4.391     0.000      2.87
   SrOH+           2.298e-11   2.185e-11   -10.639   -10.661    -0.022     (0)  

------------------------------Saturation indices-------------------------------

	Phase               SI   log IAP   log K(373 K, 267 atm)

	Celestite         0.00     -6.99   -6.99  SrSO4
	H2(g)           -11.05    -14.15   -3.10  H2
	H2O(g)            0.07     -0.00   -0.07  H2O
	H2S(g)          -26.23    -33.92   -7.70  H2S
	O2(g)           -41.62    -44.88   -3.25  O2
	Sulfur          -20.55    -16.82    3.73  S


Reaction step 6.

Using solution 1.	
Using pure phase assemblage 1.	
Using pressure 1.	

-------------------------------Phase assemblage--------------------------------

                                                      Moles in assemblage
Phase               SI  log IAP  log K(T, P)   Initial       Final       Delta

Celestite        -0.01    -6.95     -6.95    1.000e+01   1.000e+01  -4.550e-04

-----------------------------Solution composition------------------------------

	Elements           Molality       Moles

	S                 4.550e-04   4.550e-04
	Sr                4.550e-04   4.550e-04

----------------------------Description of solution----------------------------

                                       pH  =   6.113      Charge balance
                                       pe  =  -0.788      Adjusted to redox equilibrium
       Specific Conductance (uS/cm, 100 oC) = 333
                          Density (g/cm3)  =   0.97360
                        Activity of water  =   1.000
                           Ionic strength  =   1.642e-03
                       Mass of water (kg)  =   1.000e+00
                 Total alkalinity (eq/kg)  =  -1.090e-16
                    Total carbon (mol/kg)  =   0.000e+00
                       Total CO2 (mol/kg)  =   0.000e+00
                      Temperature (deg C)  = 100.00
                           Pressure (atm)  = 333.78
                  Electrical balance (eq)  =   9.097e-13
 Percent error, 100*(Cat-|An|)/(Cat+|An|)  =   0.00
                               Iterations  =  13
                                  Total H  = 1.110124e+02
                                  Total O  = 5.550804e+01

----------------------------Distribution of species----------------------------

                                            Log       Log         Log     mole V
   Species          Molality    Activity  Molality  Activity     Gamma   cm3/mol

   OH-             1.004e-06   9.532e-07    -5.998    -6.021    -0.023     -6.37
   H+              8.097e-07   7.713e-07    -6.092    -6.113    -0.021      0.00
   H2O             5.551e+01   1.000e+00     1.744    -0.000     0.000     18.51
H(0)          1.406e-14
   H2              7.030e-15   7.033e-15   -14.153   -14.153     0.000     20.00
O(0)          0.000e+00
   O2              0.000e+00   0.000e+00   -44.914   -44.914     0.000     35.00
S(-2)         5.158e-28
   H2S             3.372e-28   3.373e-28   -27.472   -27.472     0.000     38.20
   HS-             1.786e-28   1.696e-28   -27.748   -27.771    -0.023     15.07
   S-2             4.678e-33   3.812e-33   -32.330   -32.419    -0.089     (0)  
S(6)          4.550e-04
   SO4-2           4.101e-04   3.341e-04    -3.387    -3.476    -0.089      9.77
   SrSO4           4.466e-05   4.468e-05    -4.350    -4.350     0.000      2.93
   HSO4-           1.945e-07   1.847e-07    -6.711    -6.734    -0.023     (0)  
Sr            4.550e-04
   Sr+2            4.103e-04   3.347e-04    -3.387    -3.475    -0.088     -5.76
   SrSO4           4.466e-05   4.468e-05    -4.350    -4.350     0.000      2.93
   SrOH+           2.343e-11   2.226e-11   -10.630   -10.653    -0.022     (0)  

------------------------------Saturation indices-------------------------------

	Phase               SI   log IAP   log K(373 K, 334 atm)

	Celestite         0.00     -6.95   -6.95  SrSO4
	H2(g)           -11.05    -14.15   -3.10  H2
	H2O(g)            0.08     -0.00   -0.08  H2O
	H2S(g)          -26.24    -33.88   -7.64  H2S
	O2(g)           -41.62    -44.91   -3.29  O2
	Sulfur          -20.61    -16.82    3.79  S


Reaction step 7.

Using solution 1.	
Using pure phase assemblage 1.	
Using pressure 1.	

-------------------------------Phase assemblage--------------------------------

                                                      Moles in assemblage
Phase               SI  log IAP  log K(T, P)   Initial       Final       Delta

Celestite        -0.01    -6.92     -6.91    1.000e+01   1.000e+01  -4.763e-04

-----------------------------Solution composition------------------------------

	Elements           Molality       Moles

	S                 4.763e-04   4.763e-04
	Sr                4.763e-04   4.763e-04

----------------------------Description of solution----------------------------

                                       pH  =   6.103      Charge balance
                                       pe  =  -0.788      Adjusted to redox equilibrium
       Specific Conductance (uS/cm, 100 oC) = 346
                          Density (g/cm3)  =   0.97649
                        Activity of water  =   1.000
                           Ionic strength  =   1.710e-03
                       Mass of water (kg)  =   1.000e+00
                 Total alkalinity (eq/kg)  =  -1.456e-16
                    Total carbon (mol/kg)  =   0.000e+00
                       Total CO2 (mol/kg)  =   0.000e+00
                      Temperature (deg C)  = 100.00
                           Pressure (atm)  = 400.33
                  Electrical balance (eq)  =   1.849e-12
 Percent error, 100*(Cat-|An|)/(Cat+|An|)  =   0.00
                               Iterations  =  13
                                  Total H  = 1.110124e+02
                                  Total O  = 5.550812e+01

----------------------------Distribution of species----------------------------

                                            Log       Log         Log     mole V
   Species          Molality    Activity  Molality  Activity     Gamma   cm3/mol

   OH-             1.034e-06   9.809e-07    -5.985    -6.008    -0.023     -6.12
   H+              8.278e-07   7.880e-07    -6.082    -6.103    -0.021      0.00
   H2O             5.551e+01   1.000e+00     1.744    -0.000     0.000     18.45
H(0)          1.406e-14
   H2              7.030e-15   7.033e-15   -14.153   -14.153     0.000     20.00
O(0)          0.000e+00
   O2              0.000e+00   0.000e+00   -44.951   -44.951     0.000     35.00
S(-2)         5.449e-28
   H2S             3.528e-28   3.530e-28   -27.452   -27.452     0.000     38.02
   HS-             1.921e-28   1.822e-28   -27.716   -27.740    -0.023     15.07
   S-2             5.796e-33   4.709e-33   -32.237   -32.327    -0.090     (0)  
S(6)          4.763e-04
   SO4-2           4.270e-04   3.469e-04    -3.370    -3.460    -0.090     10.43
   SrSO4           4.905e-05   4.906e-05    -4.309    -4.309     0.000      3.00
   HSO4-           2.065e-07   1.959e-07    -6.685    -6.708    -0.023     (0)  
Sr            4.763e-04
   Sr+2            4.272e-04   3.475e-04    -3.369    -3.459    -0.090     -5.10
   SrSO4           4.905e-05   4.906e-05    -4.309    -4.309     0.000      3.00
   SrOH+           2.382e-11   2.262e-11   -10.623   -10.646    -0.023     (0)  

------------------------------Saturation indices-------------------------------

	Phase               SI   log IAP   log K(373 K, 400 atm)

	Celestite        -0.00     -6.92   -6.92  SrSO4
	H2(g)           -11.05    -14.15   -3.10  H2
	H2O(g)            0.10     -0.00   -0.10  H2O
	H2S(g)          -26.26    -33.84   -7.59  H2S
	O2(g)           -41.63    -44.95   -3.32  O2
	Sulfur          -20.66    -16.82    3.84  S


Reaction step 8.

Using solution 1.	
Using pure phase assemblage 1.	
Using pressure 1.	

-------------------------------Phase assemblage--------------------------------

                                                      Moles in assemblage
Phase               SI  log IAP  log K(T, P)   Initial       Final       Delta

Celestite        -0.01    -6.89     -6.88    1.000e+01   1.000e+01  -4.973e-04

-----------------------------Solution composition------------------------------

	Elements           Molality       Moles

	S                 4.973e-04   4.973e-04
	Sr                4.973e-04   4.973e-04

----------------------------Description of solution----------------------------

                                       pH  =   6.094      Charge balance
                                       pe  =  -0.789      Adjusted to redox equilibrium
       Specific Conductance (uS/cm, 100 oC) = 359
                          Density (g/cm3)  =   0.97934
                        Activity of water  =   1.000
                           Ionic strength  =   1.774e-03
                       Mass of water (kg)  =   1.000e+00
                 Total alkalinity (eq/kg)  =  -2.855e-16
                    Total carbon (mol/kg)  =   0.000e+00
                       Total CO2 (mol/kg)  =   0.000e+00
                      Temperature (deg C)  = 100.00
                           Pressure (atm)  = 466.89
                  Electrical balance (eq)  =   4.148e-12
 Percent error, 100*(Cat-|An|)/(Cat+|An|)  =   0.00
                               Iterations  =  13
                                  Total H  = 1.110124e+02
                                  Total O  = 5.550821e+01

----------------------------Distribution of species----------------------------

                                            Log       Log         Log     mole V
   Species          Molality    Activity  Molality  Activity     Gamma   cm3/mol

   OH-             1.064e-06   1.009e-06    -5.973    -5.996    -0.023     -5.87
   H+              8.459e-07   8.047e-07    -6.073    -6.094    -0.022      0.00
   H2O             5.551e+01   1.000e+00     1.744    -0.000     0.000     18.40
H(0)          1.406e-14
   H2              7.029e-15   7.032e-15   -14.153   -14.153     0.000     20.00
O(0)          0.000e+00
   O2              0.000e+00   0.000e+00   -44.987   -44.987     0.000     35.00
S(-2)         5.759e-28
   H2S             3.694e-28   3.695e-28   -27.433   -27.432     0.000     37.84
   HS-             2.066e-28   1.958e-28   -27.685   -27.708    -0.023     15.07
   S-2             7.157e-33   5.798e-33   -32.145   -32.237    -0.091     (0)  
S(6)          4.973e-04
   SO4-2           4.432e-04   3.590e-04    -3.353    -3.445    -0.092     11.10
   SrSO4           5.384e-05   5.386e-05    -4.269    -4.269     0.000      3.07
   HSO4-           2.184e-07   2.070e-07    -6.661    -6.684    -0.023     (0)  
Sr            4.973e-04
   Sr+2            4.435e-04   3.597e-04    -3.353    -3.444    -0.091     -4.43
   SrSO4           5.384e-05   5.386e-05    -4.269    -4.269     0.000      3.07
   SrOH+           2.417e-11   2.293e-11   -10.617   -10.640    -0.023     (0)  

------------------------------Saturation indices-------------------------------

	Phase               SI   log IAP   log K(373 K, 467 atm)

	Celestite        -0.00     -6.89   -6.89  SrSO4
	H2(g)           -11.05    -14.15   -3.10  H2
	H2O(g)            0.12     -0.00   -0.12  H2O
	H2S(g)          -26.27    -33.80   -7.53  H2S
	O2(g)           -41.63    -44.99   -3.36  O2
	Sulfur          -20.72    -16.82    3.90  S


Reaction step 9.

Using solution 1.	
Using pure phase assemblage 1.	
Using pressure 1.	

-------------------------------Phase assemblage--------------------------------

                                                      Moles in assemblage
Phase               SI  log IAP  log K(T, P)   Initial       Final       Delta

Celestite        -0.01    -6.86     -6.85    1.000e+01   9.999e+00  -5.179e-04

-----------------------------Solution composition------------------------------

	Elements           Molality       Moles

	S                 5.179e-04   5.179e-04
	Sr                5.179e-04   5.179e-04

----------------------------Description of solution----------------------------

                                       pH  =   6.085      Charge balance
                                       pe  =  -0.789      Adjusted to redox equilibrium
       Specific Conductance (uS/cm, 100 oC) = 371
                          Density (g/cm3)  =   0.98214
                        Activity of water  =   1.000
                           Ionic strength  =   1.836e-03
                       Mass of water (kg)  =   1.000e+00
                 Total alkalinity (eq/kg)  =  -8.547e-17
                    Total carbon (mol/kg)  =   0.000e+00
                       Total CO2 (mol/kg)  =   0.000e+00
                      Temperature (deg C)  = 100.00
                           Pressure (atm)  = 533.44
                  Electrical balance (eq)  =  -9.566e-17
 Percent error, 100*(Cat-|An|)/(Cat+|An|)  =  -0.00
                               Iterations  =  14
                                  Total H  = 1.110124e+02
                                  Total O  = 5.550829e+01

----------------------------Distribution of species----------------------------

                                            Log       Log         Log     mole V
   Species          Molality    Activity  Molality  Activity     Gamma   cm3/mol

   OH-             1.094e-06   1.036e-06    -5.961    -5.985    -0.024     -5.62
   H+              8.639e-07   8.213e-07    -6.064    -6.085    -0.022      0.00
   H2O             5.551e+01   1.000e+00     1.744    -0.000     0.000     18.35
H(0)          1.406e-14
   H2              7.030e-15   7.033e-15   -14.153   -14.153     0.000     20.00
O(0)          0.000e+00
   O2              0.000e+00   0.000e+00   -45.024   -45.024     0.000     35.00
S(-2)         6.096e-28
   H2S             3.872e-28   3.873e-28   -27.412   -27.412     0.000     37.66
   HS-             2.224e-28   2.106e-28   -27.653   -27.677    -0.024     15.07
   S-2             8.816e-33   7.124e-33   -32.055   -32.147    -0.093     (0)  
S(6)          5.179e-04
   SO4-2           4.586e-04   3.706e-04    -3.339    -3.431    -0.093     11.76
   SrSO4           5.909e-05   5.912e-05    -4.228    -4.228     0.000      3.13
   HSO4-           2.302e-07   2.181e-07    -6.638    -6.661    -0.023     (0)  
Sr            5.179e-04
   Sr+2            4.588e-04   3.713e-04    -3.338    -3.430    -0.092     -3.77
   SrSO4           5.909e-05   5.912e-05    -4.228    -4.228     0.000      3.13
   SrOH+           2.445e-11   2.318e-11   -10.612   -10.635    -0.023     (0)  

------------------------------Saturation indices-------------------------------

	Phase               SI   log IAP   log K(373 K, 533 atm)

	Celestite        -0.00     -6.86   -6.86  SrSO4
	H2(g)           -11.05    -14.15   -3.10  H2
	H2O(g)            0.13     -0.00   -0.13  H2O
	H2S(g)          -26.28    -33.76   -7.48  H2S
	O2(g)           -41.63    -45.02   -3.39  O2
	Sulfur          -20.77    -16.82    3.95  S


Reaction step 10.

Using solution 1.	
Using pure phase assemblage 1.	
Using pressure 1.	

-------------------------------Phase assemblage--------------------------------

                                                      Moles in assemblage
Phase               SI  log IAP  log K(T, P)   Initial       Final       Delta

Celestite        -0.01    -6.84     -6.83    1.000e+01   9.999e+00  -5.381e-04

-----------------------------Solution composition------------------------------

	Elements           Molality       Moles

	S                 5.381e-04   5.381e-04
	Sr                5.381e-04   5.381e-04

----------------------------Description of solution----------------------------

                                       pH  =   6.077      Charge balance
                                       pe  =  -0.790      Adjusted to redox equilibrium
       Specific Conductance (uS/cm, 100 oC) = 383
                          Density (g/cm3)  =   0.98488
                        Activity of water  =   1.000
                           Ionic strength  =   1.894e-03
                       Mass of water (kg)  =   1.000e+00
                 Total alkalinity (eq/kg)  =  -8.523e-17
                    Total carbon (mol/kg)  =   0.000e+00
                       Total CO2 (mol/kg)  =   0.000e+00
                      Temperature (deg C)  = 100.00
                           Pressure (atm)  = 600.00
                  Electrical balance (eq)  =  -4.972e-16
 Percent error, 100*(Cat-|An|)/(Cat+|An|)  =  -0.00
                               Iterations  =  14
                                  Total H  = 1.110124e+02
                                  Total O  = 5.550837e+01

----------------------------Distribution of species----------------------------

                                            Log       Log         Log     mole V
   Species          Molality    Activity  Molality  Activity     Gamma   cm3/mol

   OH-             1.124e-06   1.064e-06    -5.949    -5.973    -0.024     -5.37
   H+              8.818e-07   8.380e-07    -6.055    -6.077    -0.022      0.00
   H2O             5.551e+01   1.000e+00     1.744    -0.000     0.000     18.29
H(0)          1.406e-14
   H2              7.029e-15   7.033e-15   -14.153   -14.153     0.000     20.00
O(0)          0.000e+00
   O2              0.000e+00   0.000e+00   -45.061   -45.061     0.000     35.00
S(-2)         6.452e-28
   H2S             4.059e-28   4.061e-28   -27.392   -27.391     0.000     37.48
   HS-             2.393e-28   2.265e-28   -27.621   -27.645    -0.024     15.07
   S-2             1.082e-32   8.722e-33   -31.966   -32.059    -0.093     (0)  
S(6)          5.381e-04
   SO4-2           4.730e-04   3.814e-04    -3.325    -3.419    -0.094     12.42
   SrSO4           6.483e-05   6.486e-05    -4.188    -4.188     0.000      3.20
   HSO4-           2.419e-07   2.290e-07    -6.616    -6.640    -0.024     (0)  
Sr            5.381e-04
   Sr+2            4.733e-04   3.821e-04    -3.325    -3.418    -0.093     -3.10
   SrSO4           6.483e-05   6.486e-05    -4.188    -4.188     0.000      3.20
   SrOH+           2.468e-11   2.339e-11   -10.608   -10.631    -0.023     (0)  

------------------------------Saturation indices-------------------------------

	Phase               SI   log IAP   log K(373 K, 600 atm)

	Celestite        -0.00     -6.84   -6.84  SrSO4
	H2(g)           -11.05    -14.15   -3.10  H2
	H2O(g)            0.15     -0.00   -0.15  H2O
	H2S(g)          -26.29    -33.72   -7.43  H2S
	O2(g)           -41.64    -45.06   -3.43  O2
	Sulfur          -20.82    -16.82    4.00  S


------------------
End of simulation.
------------------

------------------------------------
Reading input data for simulation 3.
------------------------------------

	SOLUTION 1
	 pH 7 charge
	  temp 200
	USE reaction_pressure 1
	 USE equilibrium_phases 1
	END
-------------------------------------------
Beginning of initial solution calculations.
-------------------------------------------

Initial solution 1.	

-----------------------------Solution composition------------------------------

	Elements           Molality       Moles

	Pure water     

----------------------------Description of solution----------------------------

                                       pH  =   5.663      Charge balance
                                       pe  =   4.000    
       Specific Conductance (uS/cm, 200 oC) = 8
                          Density (g/cm3)  =   0.86500
                        Activity of water  =   1.000
                           Ionic strength  =   2.180e-06
                       Mass of water (kg)  =   1.000e+00
                 Total alkalinity (eq/kg)  =  -1.669e-15
                    Total carbon (mol/kg)  =   0.000e+00
                       Total CO2 (mol/kg)  =   0.000e+00
                      Temperature (deg C)  = 200.00
                           Pressure (atm)  = 15.38
                  Electrical balance (eq)  =   1.669e-15
 Percent error, 100*(Cat-|An|)/(Cat+|An|)  =   0.00
[...]
   Species          Molality    Activity  Molality  Activity     Gamma   cm3/mol

   OH-             4.615e-06   4.434e-06    -5.336    -5.353    -0.017    -34.56
   H+              1.581e-06   1.522e-06    -5.801    -5.818    -0.017      0.00
   H2O             5.551e+01   1.000e+00     1.744    -0.000     0.000     20.41
H(0)          1.983e-23
   H2              9.915e-24   9.916e-24   -23.004   -23.004     0.000     20.00
O(0)          2.599e-11
   O2              1.299e-11   1.299e-11   -10.886   -10.886     0.000     35.00
S(-2)         0.000e+00
   H2S             0.000e+00   0.000e+00   -69.042   -69.042     0.000     49.48
   HS-             0.000e+00   0.000e+00   -70.155   -70.172    -0.017     15.14
   S-2             0.000e+00   0.000e+00   -73.456   -73.525    -0.069     (0)  
S(6)          1.410e-04
   SO4-2           1.273e-04   1.087e-04    -3.895    -3.964    -0.069    -60.22
   SrSO4           1.072e-05   1.072e-05    -4.970    -4.970     0.000    -45.63
   HSO4-           3.033e-06   2.915e-06    -5.518    -5.535    -0.017     (0)  
Sr            1.410e-04
   Sr+2            1.303e-04   1.113e-04    -3.885    -3.953    -0.068     45.95
   SrSO4           1.072e-05   1.072e-05    -4.970    -4.970     0.000    -45.63
   SrOH+           3.902e-12   3.752e-12   -11.409   -11.426    -0.017     (0)  

------------------------------Saturation indices-------------------------------

	Phase               SI   log IAP   log K(473 K, 267 atm)

	Celestite        -0.00     -7.92   -7.92  SrSO4
	H2(g)           -20.20    -23.00   -2.81  H2
	H2O(g)            1.21     -0.00   -1.21  H2O
	H2S(g)          -68.13    -75.99   -7.86  H2S
	O2(g)            -7.90    -10.89   -2.99  O2
	Sulfur          -52.45    -49.73    2.73  S


Reaction step 6.

Using solution 1.	
Using pure phase assemblage 1.	
Using pressure 1.	

-------------------------------Phase assemblage--------------------------------

                                                      Moles in assemblage
Phase               SI  log IAP  log K(T, P)   Initial       Final       Delta

Celestite        -0.00    -7.88     -7.87    1.000e+01   1.000e+01  -1.494e-04

-----------------------------Solution composition------------------------------

	Elements           Molality       Moles

	S                 1.494e-04   1.494e-04
	Sr                1.494e-04   1.494e-04

----------------------------Description of solution----------------------------

                                       pH  =   5.804      Charge balance
                                       pe  =   3.853      Adjusted to redox equilibrium
       Specific Conductance (uS/cm, 200 oC) = 252
                          Density (g/cm3)  =   0.88701
                        Activity of water  =   1.000
                           Ionic strength  =   5.458e-04
                       Mass of water (kg)  =   1.000e+00
                 Total alkalinity (eq/kg)  =  -1.620e-15
                    Total carbon (mol/kg)  =   0.000e+00
                       Total CO2 (mol/kg)  =   0.000e+00
                      Temperature (deg C)  = 200.00
                           Pressure (atm)  = 333.78
                  Electrical balance (eq)  =   3.281e-13
 Percent error, 100*(Cat-|An|)/(Cat+|An|)  =   0.00
                               Iterations  =  11
                                  Total H  = 1.110124e+02
                                  Total O  = 5.550682e+01

----------------------------Distribution of species----------------------------

                                            Log       Log         Log     mole V
   Species          Molality    Activity  Molality  Activity     Gamma   cm3/mol

   OH-             4.907e-06   4.712e-06    -5.309    -5.327    -0.018    -34.31
   H+              1.631e-06   1.569e-06    -5.788    -5.804    -0.017      0.00
   H2O             5.551e+01   1.000e+00     1.744    -0.000     0.000     20.31
H(0)          1.924e-23
   H2              9.620e-24   9.621e-24   -23.017   -23.017     0.000     20.00
O(0)          2.599e-11
   O2              1.299e-11   1.299e-11   -10.886   -10.886     0.000     35.00
S(-2)         0.000e+00
   H2S             0.000e+00   0.000e+00   -69.127   -69.127     0.000     49.30
   HS-             0.000e+00   0.000e+00   -70.227   -70.245    -0.018     15.14
   S-2             0.000e+00   0.000e+00   -73.428   -73.497    -0.070     (0)  
S(6)          1.494e-04
   SO4-2           1.336e-04   1.138e-04    -3.874    -3.944    -0.070    -59.57
   SrSO4           1.254e-05   1.254e-05    -4.902    -4.902     0.000    -45.57
   HSO4-           3.276e-06   3.146e-06    -5.485    -5.502    -0.018     (0)  
Sr            1.494e-04
   Sr+2            1.369e-04   1.167e-04    -3.864    -3.933    -0.069     46.60
   SrSO4           1.254e-05   1.254e-05    -4.902    -4.902     0.000    -45.57
   SrOH+           3.969e-12   3.813e-12   -11.401   -11.419    -0.017     (0)  

------------------------------Saturation indices-------------------------------

	Phase               SI   log IAP   log K(473 K, 334 atm)

	Celestite         0.00     -7.88   -7.88  SrSO4
	H2(g)           -20.21    -23.02   -2.81  H2
	H2O(g)            1.23     -0.00   -1.23  H2O
	H2S(g)          -68.30    -76.05   -7.75  H2S
	O2(g)            -7.87    -10.89   -3.02  O2
	Sulfur          -52.64    -49.81    2.83  S


Reaction step 7.

Using solution 1.	
Using pure phase assemblage 1.	
Using pressure 1.	

-------------------------------Phase assemblage--------------------------------

                                                      Moles in assemblage
Phase               SI  log IAP  log K(T, P)   Initial       Final       Delta

Celestite        -0.01    -7.84     -7.83    1.000e+01   1.000e+01  -1.581e-04

-----------------------------Solution composition------------------------------

	Elements           Molality       Moles

	S                 1.581e-04   1.581e-04
	Sr                1.581e-04   1.581e-04

----------------------------Description of solution----------------------------

                                       pH  =   5.791      Charge balance
                                       pe  =   3.866      Adjusted to redox equilibrium
       Specific Conductance (uS/cm, 200 oC) = 264
                          Density (g/cm3)  =   0.89126
                        Activity of water  =   1.000
                           Ionic strength  =   5.718e-04
                       Mass of water (kg)  =   1.000e+00
                 Total alkalinity (eq/kg)  =  -6.778e-16
                    Total carbon (mol/kg)  =   0.000e+00
                       Total CO2 (mol/kg)  =   0.000e+00
                      Temperature (deg C)  = 200.00
                           Pressure (atm)  = 400.33
                  Electrical balance (eq)  =   2.899e-12
 Percent error, 100*(Cat-|An|)/(Cat+|An|)  =   0.00
                               Iterations  =  11
                                  Total H  = 1.110124e+02
                                  Total O  = 5.550685e+01

----------------------------Distribution of species----------------------------

                                            Log       Log         Log     mole V
   Species          Molality    Activity  Molality  Activity     Gamma   cm3/mol

   OH-             5.212e-06   5.002e-06    -5.283    -5.301    -0.018    -34.06
   H+              1.682e-06   1.617e-06    -5.774    -5.791    -0.017      0.00
   H2O             5.551e+01   1.000e+00     1.744    -0.000     0.000     20.21
H(0)          1.866e-23
   H2              9.331e-24   9.333e-24   -23.030   -23.030     0.000     20.00
O(0)          2.599e-11
   O2              1.299e-11   1.299e-11   -10.886   -10.886     0.000     35.00
S(-2)         0.000e+00
   H2S             0.000e+00   0.000e+00   -69.211   -69.211     0.000     49.12
   HS-             0.000e+00   0.000e+00   -70.299   -70.317    -0.018     15.13
   S-2             0.000e+00   0.000e+00   -73.401   -73.472    -0.071     (0)  
S(6)          1.581e-04
   SO4-2           1.399e-04   1.189e-04    -3.854    -3.925    -0.071    -58.92
   SrSO4           1.467e-05   1.467e-05    -4.833    -4.833     0.000    -45.50
   HSO4-           3.530e-06   3.388e-06    -5.452    -5.470    -0.018     (0)  
Sr            1.581e-04
   Sr+2            1.434e-04   1.220e-04    -3.843    -3.914    -0.070     47.26
   SrSO4           1.467e-05   1.467e-05    -4.833    -4.833     0.000    -45.50
   SrOH+           4.028e-12   3.868e-12   -11.395   -11.413    -0.018     (0)  

------------------------------Saturation indices-------------------------------

	Phase               SI   log IAP   log K(473 K, 400 atm)

	Celestite        -0.00     -7.84   -7.84  SrSO4
	H2(g)           -20.22    -23.03   -2.81  H2
	H2O(g)            1.24     -0.00   -1.24  H2O
	H2S(g)          -68.46    -76.11   -7.65  H2S
	O2(g)            -7.84    -10.89   -3.05  O2
	Sulfur          -52.83    -49.90    2.93  S


Reaction step 8.

Using solution 1.	
Using pure phase assemblage 1.	
Using pressure 1.	

-------------------------------Phase assemblage--------------------------------

                                                      Moles in assemblage
Phase               SI  log IAP  log K(T, P)   Initial       Final       Delta

Celestite        -0.01    -7.80     -7.80    1.000e+01   1.000e+01  -1.671e-04

-----------------------------Solution composition------------------------------

	Elements           Molality       Moles

	S                 1.671e-04   1.671e-04
	Sr                1.671e-04   1.671e-04

----------------------------Description of solution----------------------------

                                       pH  =   5.778      Charge balance
                                       pe  =   3.878      Adjusted to redox equilibrium
       Specific Conductance (uS/cm, 200 oC) = 276
                          Density (g/cm3)  =   0.89540
                        Activity of water  =   1.000
                           Ionic strength  =   5.976e-04
                       Mass of water (kg)  =   1.000e+00
                 Total alkalinity (eq/kg)  =   3.101e-16
                    Total carbon (mol/kg)  =   0.000e+00
                       Total CO2 (mol/kg)  =   0.000e+00
                      Temperature (deg C)  = 200.00
                           Pressure (atm)  = 466.89
                  Electrical balance (eq)  =   5.728e-12
 Percent error, 100*(Cat-|An|)/(Cat+|An|)  =   0.00
                               Iterations  =  11
                                  Total H  = 1.110124e+02
                                  Total O  = 5.550689e+01

----------------------------Distribution of species----------------------------

                                            Log       Log         Log     mole V
   Species          Molality    Activity  Molality  Activity     Gamma   cm3/mol

   OH-             5.530e-06   5.304e-06    -5.257    -5.275    -0.018    -33.81
   H+              1.735e-06   1.667e-06    -5.761    -5.778    -0.017      0.00
   H2O             5.551e+01   1.000e+00     1.744    -0.000     0.000     20.12
H(0)          1.810e-23
   H2              9.049e-24   9.050e-24   -23.043   -23.043     0.000     20.00
O(0)          2.599e-11
   O2              1.299e-11   1.299e-11   -10.886   -10.886     0.000     35.00
S(-2)         0.000e+00
   H2S             0.000e+00   0.000e+00   -69.295   -69.295     0.000     48.94
   HS-             0.000e+00   0.000e+00   -70.372   -70.390    -0.018     15.13
   S-2             0.000e+00   0.000e+00   -73.376   -73.448    -0.071     (0)  
S(6)          1.671e-04
   SO4-2           1.461e-04   1.240e-04    -3.835    -3.907    -0.071    -58.27
   SrSO4           1.716e-05   1.716e-05    -4.765    -4.765     0.000    -45.43
   HSO4-           3.795e-06   3.641e-06    -5.421    -5.439    -0.018     (0)  
Sr            1.671e-04
   Sr+2            1.499e-04   1.272e-04    -3.824    -3.895    -0.071     47.91
   SrSO4           1.716e-05   1.716e-05    -4.765    -4.765     0.000    -45.43
   SrOH+           4.079e-12   3.914e-12   -11.389   -11.407    -0.018     (0)  

------------------------------Saturation indices-------------------------------

	Phase               SI   log IAP   log K(473 K, 467 atm)

	Celestite        -0.00     -7.80   -7.80  SrSO4
	H2(g)           -20.24    -23.04   -2.81  H2
	H2O(g)            1.26     -0.00   -1.26  H2O
	H2S(g)          -68.61    -76.17   -7.55  H2S
	O2(g)            -7.81    -10.89   -3.08  O2
	Sulfur          -53.01    -49.98    3.03  S


Reaction step 9.

Using solution 1.	
Using pure phase assemblage 1.	
Using pressure 1.	

-------------------------------Phase assemblage--------------------------------

                                                      Moles in assemblage
Phase               SI  log IAP  log K(T, P)   Initial       Final       Delta

Celestite        -0.01    -7.77     -7.76    1.000e+01   1.000e+01  -1.764e-04

-----------------------------Solution composition------------------------------

	Elements           Molality       Moles

	S                 1.764e-04   1.764e-04
	Sr                1.764e-04   1.764e-04

----------------------------Description of solution----------------------------

                                       pH  =   5.765      Charge balance
                                       pe  =   3.891      Adjusted to redox equilibrium
       Specific Conductance (uS/cm, 200 oC) = 287
                          Density (g/cm3)  =   0.89942
                        Activity of water  =   1.000
                           Ionic strength  =   6.232e-04
                       Mass of water (kg)  =   1.000e+00
                 Total alkalinity (eq/kg)  =  -1.669e-15
                    Total carbon (mol/kg)  =   0.000e+00
                       Total CO2 (mol/kg)  =   0.000e+00
                      Temperature (deg C)  = 200.00
                           Pressure (atm)  = 533.44
                  Electrical balance (eq)  =   1.669e-15
 Percent error, 100*(Cat-|An|)/(Cat+|An|)  =   0.00
                               Iterations  =  12
                                  Total H  = 1.110124e+02
                                  Total O  = 5.550692e+01

----------------------------Distribution of species----------------------------

                                            Log       Log         Log     mole V
   Species          Molality    Activity  Molality  Activity     Gamma   cm3/mol

   OH-             5.860e-06   5.618e-06    -5.232    -5.250    -0.018    -33.56
   H+              1.789e-06   1.719e-06    -5.747    -5.765    -0.017      0.00
   H2O             5.551e+01   1.000e+00     1.744    -0.000     0.000     20.03
H(0)          1.754e-23
   H2              8.772e-24   8.774e-24   -23.057   -23.057     0.000     20.00
O(0)          2.599e-11
   O2              1.299e-11   1.299e-11   -10.886   -10.886     0.000     35.00
S(-2)         0.000e+00
   H2S             0.000e+00   0.000e+00   -69.378   -69.378     0.000     48.76
   HS-             0.000e+00   0.000e+00   -70.444   -70.462    -0.018     15.13
   S-2             0.000e+00   0.000e+00   -73.352   -73.425    -0.072     (0)  
S(6)          1.764e-04
   SO4-2           1.523e-04   1.289e-04    -3.817    -3.890    -0.072    -57.61
   SrSO4           2.007e-05   2.007e-05    -4.697    -4.697     0.000    -45.37
   HSO4-           4.071e-06   3.903e-06    -5.390    -5.409    -0.018     (0)  
Sr            1.764e-04
   Sr+2            1.564e-04   1.324e-04    -3.806    -3.878    -0.072     48.57
   SrSO4           2.007e-05   2.007e-05    -4.697    -4.697     0.000    -45.37
   SrOH+           4.121e-12   3.952e-12   -11.385   -11.403    -0.018     (0)  

------------------------------Saturation indices-------------------------------

	Phase               SI   log IAP   log K(473 K, 533 atm)

	Celestite         0.00     -7.77   -7.77  SrSO4
	H2(g)           -20.25    -23.06   -2.81  H2
	H2O(g)            1.27     -0.00   -1.27  H2O
	H2S(g)          -68.77    -76.23   -7.46  H2S
	O2(g)            -7.78    -10.89   -3.11  O2
	Sulfur          -53.19    -50.07    3.13  S


Reaction step 10.

Using solution 1.	
Using pure phase assemblage 1.	
Using pressure 1.	

-------------------------------Phase assemblage--------------------------------

                                                      Moles in assemblage
Phase               SI  log IAP  log K(T, P)   Initial       Final       Delta

Celestite        -0.01    -7.74     -7.73    1.000e+01   1.000e+01  -1.862e-04

-----------------------------Solution composition------------------------------

	Elements           Molality       Moles

	S                 1.862e-04   1.862e-04
	Sr                1.862e-04   1.862e-04

----------------------------Description of solution----------------------------

                                       pH  =   5.752      Charge balance
                                       pe  =   3.903      Adjusted to redox equilibrium
       Specific Conductance (uS/cm, 200 oC) = 299
                          Density (g/cm3)  =   0.90333
                        Activity of water  =   1.000
                           Ionic strength  =   6.482e-04
                       Mass of water (kg)  =   1.000e+00
                 Total alkalinity (eq/kg)  =  -1.669e-15
                    Total carbon (mol/kg)  =   0.000e+00
                       Total CO2 (mol/kg)  =   0.000e+00
                      Temperature (deg C)  = 200.00
                           Pressure (atm)  = 600.00
                  Electrical balance (eq)  =   1.669e-15
 Percent error, 100*(Cat-|An|)/(Cat+|An|)  =   0.00
                               Iterations  =  12
                                  Total H  = 1.110124e+02
                                  Total O  = 5.550696e+01

----------------------------Distribution of species----------------------------

                                            Log       Log         Log     mole V
   Species          Molality    Activity  Molality  Activity     Gamma   cm3/mol

   OH-             6.202e-06   5.943e-06    -5.207    -5.226    -0.019    -33.32
   H+              1.845e-06   1.772e-06    -5.734    -5.752    -0.018      0.00
   H2O             5.551e+01   1.000e+00     1.744    -0.000     0.000     19.94
H(0)          1.700e-23
   H2              8.502e-24   8.503e-24   -23.070   -23.070     0.000     20.00
O(0)          2.599e-11
   O2              1.299e-11   1.299e-11   -10.886   -10.886     0.000     35.00
S(-2)         0.000e+00
   H2S             0.000e+00   0.000e+00   -69.461   -69.461     0.000     48.58
   HS-             0.000e+00   0.000e+00   -70.516   -70.535    -0.019     15.12
   S-2             0.000e+00   0.000e+00   -73.330   -73.404    -0.073     (0)  
S(6)          1.862e-04
   SO4-2           1.583e-04   1.338e-04    -3.800    -3.874    -0.073    -56.96
   SrSO4           2.346e-05   2.347e-05    -4.630    -4.630     0.000    -45.30
   HSO4-           4.357e-06   4.175e-06    -5.361    -5.379    -0.019     (0)  
Sr            1.862e-04
   Sr+2            1.627e-04   1.375e-04    -3.789    -3.862    -0.073     49.23
   SrSO4           2.346e-05   2.347e-05    -4.630    -4.630     0.000    -45.30
   SrOH+           4.153e-12   3.982e-12   -11.382   -11.400    -0.018     (0)  

------------------------------Saturation indices-------------------------------

	Phase               SI   log IAP   log K(473 K, 600 atm)

	Celestite         0.00     -7.74   -7.74  SrSO4
	H2(g)           -20.26    -23.07   -2.81  H2
	H2O(g)            1.29     -0.00   -1.29  H2O
	H2S(g)          -68.93    -76.29   -7.36  H2S
	O2(g)            -7.75    -10.89   -3.14  O2
	Sulfur          -53.37    -50.15    3.22  S


------------------
End of simulation.
------------------

------------------------------------
Reading input data for simulation 4.
------------------------------------

-----------
End of run.
-----------

