WARNING: Database file from DATABASE keyword is used; command line argument ignored.
   Input file: SrSO4_tc
  Output file: SrSO4_tc.out
Database file: ../database/phreeqc.dat

------------------
Reading data base.
------------------

	SOLUTION_MASTER_SPECIES
	SOLUTION_SPECIES
	PHASES
	EXCHANGE_MASTER_SPECIES
	EXCHANGE_SPECIES
	SURFACE_MASTER_SPECIES
	SURFACE_SPECIES
	RATES
	END
------------------------------------
Reading input data for simulation 1.
------------------------------------

	DATABASE ../database/phreeqc.dat
	SELECTED_OUTPUT 101
	    file                 SrSO4_tc_101.sel
	USER_PUNCH 101
	    headings Mu SC
	    start
	10 PUNCH STR_F$(MU, 20, 12)
	20 PUNCH STR_F$(SC, 20, 10)
	    end
	SOLUTION 1
	 pH 7 charge
	 temp 25
	 pressure 200
	EQUILIBRIUM_PHASES
	 Celestite
	REACTION_TEMPERATURE
	 25 250 in 10
	USER_GRAPH
	 axis_titles "Temperature / oC" "Celestitte solubility / M"
	  1 DATA 7.556e-04, 6.469e-04, 3.901e-04, 2.568e-04, 1.580e-04,  5.926e-05
	  2 DIM d(6)
	  3 read d(1), d(2), d(3), d(4), d(5), d(6)
	  4 DATA 25, 50, 100, 150, 200, 250
	  5 DIM t(6)
	  6 read t(1), t(2), t(3), t(4), t(5), t(6)
	 10 plot_xy tc, tot("Sr"), color = Red, symbol = None
	 20 if step_no > 6 then goto 30
	 22 plot_xy t(step_no), d(step_no), line_width = 0, color = Red
	 30 end
	END
-------------------------------------------
Beginning of initial solution calculations.
-------------------------------------------

Initial solution 1.	

-----------------------------Solution composition------------------------------

	Elements           Molality       Moles

	Pure water     

----------------------------Description of solution----------------------------

                                       pH  =   6.960      Charge balance
                                       pe  =   4.000    
      Specific Conductance (µS/cm,  25°C)  = 0
                          Density (g/cm³)  =   1.00591
                               Volume (L)  =   0.99413
                        Viscosity (mPa s)  =   0.88790
                        Activity of water  =   1.000
                 Ionic strength (mol/kgw)  =   1.098e-07
                       Mass of water (kg)  =   1.000e+00
                 Total alkalinity (eq/kg)  =  -2.250e-22
                         Temperature (°C)  =  25.00
                           Pressure (atm)  = 200.00
                  Electrical balance (eq)  =   2.250e-22
 Percent error, 100*(Cat-|An|)/(Cat+|An|)  =   0.00
                               Iterations  =   3
                                  Total H  = 1.110124e+02
                                  Total O  = 5.550622e+01

----------------------------Distribution of species----------------------------

                                               Log       Log       Log    mole V
   Species          Molality    Activity  Molality  Activity     Gamma   cm³/mol

   H+              1.098e-07   1.097e-07    -6.960    -6.960    -0.000      0.00
   OH-             1.098e-07   1.097e-07    -6.960    -6.960    -0.000     -3.43
   H2O             5.551e+01   1.000e+00     1.744    -0.000     0.000     17.91
H(0)          1.352e-25
   H2              6.760e-26   6.760e-26   -25.170   -25.170     0.000     28.52
O(0)          0.000e+00
   O2              0.000e+00   0.000e+00   -42.221   -42.221     0.000     30.12

------------------------------Saturation indices-------------------------------

  Phase               SI** log IAP   log K(298 K, 200 atm)

  H2(g)           -21.97    -25.17   -3.20  H2
  H2O(g)           -1.44     -0.00    1.44  H2O
  O2(g)           -39.22    -42.22   -3.00  O2

**For a gas, SI = log10(fugacity). Fugacity = pressure * phi / 1 atm.
  For ideal gases, phi = 1.

-----------------------------------------
Beginning of batch-reaction calculations.
-----------------------------------------

Reaction step 1.

Using solution 1.	
Using pure phase assemblage 1.	
Using temperature 1.	

-------------------------------Phase assemblage--------------------------------

                                                      Moles in assemblage
Phase               SI  log IAP  log K(T, P)   Initial       Final       Delta

Celestite         0.00    -6.49     -6.49    1.000e+01   9.999e+00  -7.615e-04

-----------------------------Solution composition------------------------------

	Elements           Molality       Moles

	S                 7.615e-04   7.615e-04
	Sr                7.615e-04   7.615e-04

----------------------------Description of solution----------------------------

                                       pH  =   6.968      Charge balance
                                       pe  =  -1.518      Adjusted to redox equilibrium
      Specific Conductance (µS/cm,  25°C)  = 181
                          Density (g/cm³)  =   1.00605
                               Volume (L)  =   0.99413
                        Viscosity (mPa s)  =   0.88904
                        Activity of water  =   1.000
                 Ionic strength (mol/kgw)  =   2.842e-03
                       Mass of water (kg)  =   1.000e+00
                 Total alkalinity (eq/kg)  =  -2.352e-20
                         Temperature (°C)  =  25.00
                           Pressure (atm)  = 200.00
                  Electrical balance (eq)  =   2.890e-15
 Percent error, 100*(Cat-|An|)/(Cat+|An|)  =   0.00
                               Iterations  =  14
                                  Total H  = 1.110124e+02
                                  Total O  = 5.550926e+01

----------------------------Distribution of species----------------------------

                                               Log       Log       Log    mole V
   Species          Molality    Activity  Molality  Activity     Gamma   cm³/mol

   OH-             1.185e-07   1.118e-07    -6.926    -6.952    -0.025     -3.38
   H+              1.136e-07   1.077e-07    -6.945    -6.968    -0.023      0.00
   H2O             5.551e+01   1.000e+00     1.744    -0.000     0.000     17.91
H(0)          1.414e-14
   H2              7.072e-15   7.077e-15   -14.150   -14.150     0.000     28.52
O(0)          0.000e+00
   O2              0.000e+00   0.000e+00   -64.261   -64.261     0.000     30.12
S(-2)         7.036e-21
   HS-             3.918e-21   3.696e-21   -20.407   -20.432    -0.025     20.71
   H2S             3.118e-21   3.120e-21   -20.506   -20.506     0.000     34.12
   S-2             6.162e-27   4.906e-27   -26.210   -26.309    -0.099     (0)  
   (H2S)2          0.000e+00   0.000e+00   -42.186   -42.186     0.000     38.72
S(6)          7.615e-04
   SO4-2           7.104e-04   5.654e-04    -3.148    -3.248    -0.099     16.17
   SrSO4           5.106e-05   5.109e-05    -4.292    -4.292     0.000     24.80
   HSO4-           5.172e-09   4.881e-09    -8.286    -8.311    -0.025     39.88
Sr            7.615e-04
   Sr+2            7.104e-04   5.665e-04    -3.148    -3.247    -0.098    -16.06
   SrSO4           5.106e-05   5.109e-05    -4.292    -4.292     0.000     24.80
   SrOH+           2.900e-10   2.739e-10    -9.538    -9.562    -0.025     (0)  

------------------------------Saturation indices-------------------------------

  Phase               SI** log IAP   log K(298 K, 200 atm)

  Celestite         0.00     -6.49   -6.49  SrSO4
  H2(g)           -10.95    -14.15   -3.20  H2
  H2O(g)           -1.44     -0.00    1.44  H2O
  H2S(g)          -19.39    -27.40   -8.01  H2S
  O2(g)           -61.26    -64.26   -3.00  O2
  Sulfur          -14.37     -9.61    4.76  S

**For a gas, SI = log10(fugacity). Fugacity = pressure * phi / 1 atm.
  For ideal gases, phi = 1.

Reaction step 2.

Using solution 1.	
Using pure phase assemblage 1.	
Using temperature 1.	

-------------------------------Phase assemblage--------------------------------

                                                      Moles in assemblage
Phase               SI  log IAP  log K(T, P)   Initial       Final       Delta

Celestite         0.00    -6.65     -6.65    1.000e+01   9.999e+00  -6.332e-04

-----------------------------Solution composition------------------------------

	Elements           Molality       Moles

	S                 6.332e-04   6.332e-04
	Sr                6.332e-04   6.332e-04

----------------------------Description of solution----------------------------

                                       pH  =   6.609      Charge balance
                                       pe  =  -1.205      Adjusted to redox equilibrium
      Specific Conductance (µS/cm,  50°C)  = 231
                          Density (g/cm³)  =   0.99667
                               Volume (L)  =   1.00345
                        Viscosity (mPa s)  =   0.55135
                        Activity of water  =   1.000
                 Ionic strength (mol/kgw)  =   2.344e-03
                       Mass of water (kg)  =   1.000e+00
                 Total alkalinity (eq/kg)  =  -8.872e-19
                         Temperature (°C)  =  50.00
                           Pressure (atm)  = 200.00
                  Electrical balance (eq)  =   3.735e-15
 Percent error, 100*(Cat-|An|)/(Cat+|An|)  =   0.00
                               Iterations  =  14
                                  Total H  = 1.110124e+02
                                  Total O  = 5.550875e+01

----------------------------Distribution of species----------------------------

                                               Log       Log       Log    mole V
   Species          Molality    Activity  Molality  Activity     Gamma   cm³/mol

   OH-             2.773e-07   2.623e-07    -6.557    -6.581    -0.024     -3.99
   H+              2.593e-07   2.463e-07    -6.586    -6.609    -0.022      0.00
   H2O             5.551e+01   1.000e+00     1.744    -0.000     0.000     18.08
H(0)          1.414e-14
   H2              7.072e-15   7.076e-15   -14.150   -14.150     0.000     28.50
O(0)          0.000e+00
   O2              0.000e+00   0.000e+00   -56.806   -56.806     0.000     31.50
S(-2)         1.412e-23
   HS-             7.074e-24   6.690e-24   -23.150   -23.175    -0.024     21.17
   H2S             7.043e-24   7.047e-24   -23.152   -23.152     0.000     38.43
   S-2             2.322e-29   1.867e-29   -28.634   -28.729    -0.095     (0)  
   (H2S)2          0.000e+00   0.000e+00   -47.229   -47.229     0.000     37.53
S(6)          6.332e-04
   SO4-2           5.860e-04   4.710e-04    -3.232    -3.327    -0.095     17.25
   SrSO4           4.716e-05   4.718e-05    -4.326    -4.326     0.000     25.37
   HSO4-           1.811e-08   1.714e-08    -7.742    -7.766    -0.024     40.78
Sr            6.332e-04
   Sr+2            5.860e-04   4.718e-04    -3.232    -3.326    -0.094    -16.71
   SrSO4           4.716e-05   4.718e-05    -4.326    -4.326     0.000     25.37
   SrOH+           1.048e-10   9.926e-11    -9.980   -10.003    -0.024     (0)  

------------------------------Saturation indices-------------------------------

  Phase               SI** log IAP   log K(323 K, 200 atm)

  Celestite         0.00     -6.65   -6.65  SrSO4
  H2(g)           -10.92    -14.15   -3.23  H2
  H2O(g)           -0.86     -0.00    0.86  H2O
  H2S(g)          -21.80    -29.78   -7.98  H2S
  O2(g)           -53.67    -56.81   -3.13  O2
  Sulfur          -16.56    -12.34    4.22  S

**For a gas, SI = log10(fugacity). Fugacity = pressure * phi / 1 atm.
  For ideal gases, phi = 1.

Reaction step 3.

Using solution 1.	
Using pure phase assemblage 1.	
Using temperature 1.	

-------------------------------Phase assemblage--------------------------------

                                                      Moles in assemblage
Phase               SI  log IAP  log K(T, P)   Initial       Final       Delta

Celestite         0.00    -6.82     -6.82    1.000e+01   9.999e+00  -5.186e-04

-----------------------------Solution composition------------------------------

	Elements           Molality       Moles

	S                 5.186e-04   5.186e-04
	Sr                5.186e-04   5.186e-04

----------------------------Description of solution----------------------------

                                       pH  =   6.331      Charge balance
                                       pe  =  -0.966      Adjusted to redox equilibrium
      Specific Conductance (µS/cm,  75°C)  = 262
                          Density (g/cm³)  =   0.98367
                               Volume (L)  =   1.01670
                        Viscosity (mPa s)  =   0.38321
                        Activity of water  =   1.000
                 Ionic strength (mol/kgw)  =   1.914e-03
                       Mass of water (kg)  =   1.000e+00
                 Total alkalinity (eq/kg)  =  -2.122e-18
                         Temperature (°C)  =  75.00
                           Pressure (atm)  = 200.00
                  Electrical balance (eq)  =   4.482e-15
 Percent error, 100*(Cat-|An|)/(Cat+|An|)  =   0.00
                               Iterations  =  14
                                  Total H  = 1.110124e+02
                                  Total O  = 5.550829e+01

----------------------------Distribution of species----------------------------

                                               Log       Log       Log    mole V
   Species          Molality    Activity  Molality  Activity     Gamma   cm³/mol

   OH-             5.459e-07   5.175e-07    -6.263    -6.286    -0.023     -5.08
   H+              4.905e-07   4.668e-07    -6.309    -6.331    -0.022      0.00
   H2O             5.551e+01   1.000e+00     1.744    -0.000     0.000     18.32
H(0)          1.415e-14
   H2              7.073e-15   7.076e-15   -14.150   -14.150     0.000     28.49
O(0)          0.000e+00
   O2              0.000e+00   0.000e+00   -50.421   -50.420     0.000     32.45
S(-2)         6.670e-26
   H2S             3.866e-26   3.868e-26   -25.413   -25.413     0.000     41.18
   HS-             2.804e-26   2.658e-26   -25.552   -25.575    -0.023     20.88
   S-2             1.842e-31   1.494e-31   -30.735   -30.826    -0.091     (0)  
   (H2S)2          0.000e+00   0.000e+00   -51.595   -51.595     0.000     35.81
S(6)          5.186e-04
   SO4-2           4.783e-04   3.879e-04    -3.320    -3.411    -0.091     15.83
   SrSO4           4.021e-05   4.023e-05    -4.396    -4.395     0.000     25.71
   HSO4-           5.545e-08   5.258e-08    -7.256    -7.279    -0.023     40.85
Sr            5.186e-04
   Sr+2            4.784e-04   3.885e-04    -3.320    -3.411    -0.090    -17.41
   SrSO4           4.021e-05   4.023e-05    -4.396    -4.395     0.000     25.71
   SrOH+           4.527e-11   4.296e-11   -10.344   -10.367    -0.023     (0)  

------------------------------Saturation indices-------------------------------

  Phase               SI** log IAP   log K(348 K, 200 atm)

  Celestite         0.00     -6.82   -6.82  SrSO4
  H2(g)           -10.93    -14.15   -3.22  H2
  H2O(g)           -0.37     -0.00    0.37  H2O
  H2S(g)          -23.90    -31.91   -8.00  H2S
  O2(g)           -47.22    -50.42   -3.20  O2
  Sulfur          -18.44    -14.68    3.76  S

**For a gas, SI = log10(fugacity). Fugacity = pressure * phi / 1 atm.
  For ideal gases, phi = 1.

Reaction step 4.

Using solution 1.	
Using pure phase assemblage 1.	
Using temperature 1.	

-------------------------------Phase assemblage--------------------------------

                                                      Moles in assemblage
Phase               SI  log IAP  log K(T, P)   Initial       Final       Delta

Celestite         0.00    -7.00     -7.00    1.000e+01   1.000e+01  -4.162e-04

-----------------------------Solution composition------------------------------

	Elements           Molality       Moles

	S                 4.162e-04   4.162e-04
	Sr                4.162e-04   4.162e-04

----------------------------Description of solution----------------------------

                                       pH  =   6.120      Charge balance
                                       pe  =  -0.790      Adjusted to redox equilibrium
      Specific Conductance (µS/cm, 100°C)  = 273
                          Density (g/cm³)  =   0.96771
                               Volume (L)  =   1.03345
                        Viscosity (mPa s)  =   0.28736
                        Activity of water  =   1.000
                 Ionic strength (mol/kgw)  =   1.538e-03
                       Mass of water (kg)  =   1.000e+00
                 Total alkalinity (eq/kg)  =  -2.571e-18
                         Temperature (°C)  = 100.00
                           Pressure (atm)  = 200.00
                  Electrical balance (eq)  =   4.908e-15
 Percent error, 100*(Cat-|An|)/(Cat+|An|)  =   0.00
                               Iterations  =  14
                                  Total H  = 1.110124e+02
                                  Total O  = 5.550788e+01

----------------------------Distribution of species----------------------------

                                               Log       Log       Log    mole V
   Species          Molality    Activity  Molality  Activity     Gamma   cm³/mol

   OH-             9.453e-07   8.982e-07    -6.024    -6.047    -0.022     -6.71
   H+              7.953e-07   7.582e-07    -6.099    -6.120    -0.021      0.00
   H2O             5.551e+01   1.000e+00     1.744    -0.000     0.000     18.62
H(0)          1.414e-14
   H2              7.072e-15   7.075e-15   -14.150   -14.150     0.000     28.48
O(0)          0.000e+00
   O2              0.000e+00   0.000e+00   -44.890   -44.890     0.000     33.27
S(-2)         6.308e-28
   H2S             4.242e-28   4.243e-28   -27.372   -27.372     0.000     43.27
   HS-             2.066e-28   1.963e-28   -27.685   -27.707    -0.022     19.99
   S-2             2.637e-33   2.158e-33   -32.579   -32.666    -0.087     (0)  
   (H2S)2          0.000e+00   0.000e+00   -55.428   -55.428     0.000     33.42
S(6)          4.162e-04
   SO4-2           3.843e-04   3.145e-04    -3.415    -3.502    -0.087     12.48
   SrSO4           3.181e-05   3.182e-05    -4.497    -4.497     0.000     25.92
   HSO4-           1.500e-07   1.426e-07    -6.824    -6.846    -0.022     40.32
Sr            4.162e-04
   Sr+2            3.844e-04   3.150e-04    -3.415    -3.502    -0.087    -18.27
   SrSO4           3.181e-05   3.182e-05    -4.497    -4.497     0.000     25.92
   SrOH+           2.245e-11   2.135e-11   -10.649   -10.671    -0.022     (0)  

------------------------------Saturation indices-------------------------------

  Phase               SI** log IAP   log K(373 K, 200 atm)

  Celestite         0.00     -7.00   -7.00  SrSO4
  H2(g)           -10.97    -14.15   -3.18  H2
  H2O(g)            0.05     -0.00   -0.05  H2O
  H2S(g)          -25.77    -33.83   -8.06  H2S
  O2(g)           -41.68    -44.89   -3.21  O2
  Sulfur          -20.07    -16.71    3.36  S

**For a gas, SI = log10(fugacity). Fugacity = pressure * phi / 1 atm.
  For ideal gases, phi = 1.

Reaction step 5.

Using solution 1.	
Using pure phase assemblage 1.	
Using temperature 1.	

-------------------------------Phase assemblage--------------------------------

                                                      Moles in assemblage
Phase               SI  log IAP  log K(T, P)   Initial       Final       Delta

Celestite         0.00    -7.20     -7.20    1.000e+01   1.000e+01  -3.271e-04

-----------------------------Solution composition------------------------------

	Elements           Molality       Moles

	S                 3.271e-04   3.271e-04
	Sr                3.271e-04   3.271e-04

----------------------------Description of solution----------------------------

                                       pH  =   5.968      Charge balance
                                       pe  =  -0.667      Adjusted to redox equilibrium
      Specific Conductance (µS/cm, 125°C)  = 266
                          Density (g/cm³)  =   0.94908
                               Volume (L)  =   1.05372
                        Viscosity (mPa s)  =   0.22760
                        Activity of water  =   1.000
                 Ionic strength (mol/kgw)  =   1.216e-03
                       Mass of water (kg)  =   1.000e+00
                 Total alkalinity (eq/kg)  =  -9.201e-19
                         Temperature (°C)  = 125.00
                           Pressure (atm)  = 200.00
                  Electrical balance (eq)  =   2.163e-15
 Percent error, 100*(Cat-|An|)/(Cat+|An|)  =   0.00
                               Iterations  =  14
                                  Total H  = 1.110124e+02
                                  Total O  = 5.550753e+01

----------------------------Distribution of species----------------------------

                                               Log       Log       Log    mole V
   Species          Molality    Activity  Molality  Activity     Gamma   cm³/mol

   OH-             1.488e-06   1.417e-06    -5.827    -5.849    -0.021     -9.06
   H+              1.128e-06   1.078e-06    -5.948    -5.968    -0.020      0.00
   H2O             5.551e+01   1.000e+00     1.744    -0.000     0.000     18.98
H(0)          1.414e-14
   H2              7.072e-15   7.074e-15   -14.150   -14.150     0.000     28.47
O(0)          0.000e+00
   O2              0.000e+00   0.000e+00   -40.053   -40.053     0.000     34.10
S(-2)         1.045e-29
   H2S             7.969e-30   7.971e-30   -29.099   -29.098     0.000     45.12
   HS-             2.485e-30   2.367e-30   -29.605   -29.626    -0.021     18.45
   S-2             6.069e-35   5.013e-35   -34.217   -34.300    -0.083     (0)  
   (H2S)2          0.000e+00   0.000e+00   -58.847   -58.847     0.000     30.11
S(6)          3.271e-04
   SO4-2           3.033e-04   2.505e-04    -3.518    -3.601    -0.083      7.15
   SrSO4           2.344e-05   2.345e-05    -4.630    -4.630     0.000     26.08
   HSO4-           3.600e-07   3.430e-07    -6.444    -6.465    -0.021     39.21
Sr            3.271e-04
   Sr+2            3.037e-04   2.511e-04    -3.518    -3.600    -0.083    -19.40
   SrSO4           2.344e-05   2.345e-05    -4.630    -4.630     0.000     26.08
   SrOH+           1.250e-11   1.192e-11   -10.903   -10.924    -0.021     (0)  

------------------------------Saturation indices-------------------------------

  Phase               SI** log IAP   log K(398 K, 200 atm)

  Celestite         0.00     -7.20   -7.20  SrSO4
  H2(g)           -11.03    -14.15   -3.12  H2
  H2O(g)            0.40     -0.00   -0.40  H2O
  H2S(g)          -27.44    -35.59   -8.15  H2S
  O2(g)           -36.87    -40.05   -3.18  O2
  Sulfur          -21.51    -18.50    3.01  S

**For a gas, SI = log10(fugacity). Fugacity = pressure * phi / 1 atm.
  For ideal gases, phi = 1.

Reaction step 6.

Using solution 1.	
Using pure phase assemblage 1.	
Using temperature 1.	

-------------------------------Phase assemblage--------------------------------

                                                      Moles in assemblage
Phase               SI  log IAP  log K(T, P)   Initial       Final       Delta

Celestite         0.00    -7.41     -7.41    1.000e+01   1.000e+01  -2.522e-04

-----------------------------Solution composition------------------------------

	Elements           Molality       Moles

	S                 2.522e-04   2.522e-04
	Sr                2.522e-04   2.522e-04

----------------------------Description of solution----------------------------

                                       pH  =   5.868      Charge balance
                                       pe  =  -0.668      Adjusted to redox equilibrium
      Specific Conductance (µS/cm, 150°C)  = 245
                          Density (g/cm³)  =   0.92792
                               Volume (L)  =   1.07773
                        Viscosity (mPa s)  =   0.18778
                        Activity of water  =   1.000
                 Ionic strength (mol/kgw)  =   9.447e-04
                       Mass of water (kg)  =   1.000e+00
                 Total alkalinity (eq/kg)  =   3.045e-19
                         Temperature (°C)  = 150.00
                           Pressure (atm)  = 200.00
                  Electrical balance (eq)  =   1.349e-15
 Percent error, 100*(Cat-|An|)/(Cat+|An|)  =   0.00
                               Iterations  =  14
                                  Total H  = 1.110124e+02
                                  Total O  = 5.550723e+01

----------------------------Distribution of species----------------------------

                                               Log       Log       Log    mole V
   Species          Molality    Activity  Molality  Activity     Gamma   cm³/mol

   OH-             2.183e-06   2.085e-06    -5.661    -5.681    -0.020    -12.40
   H+              1.417e-06   1.357e-06    -5.849    -5.868    -0.019      0.00
   H2O             5.551e+01   1.000e+00     1.744    -0.000     0.000     19.42
H(0)          2.000e-14
   H2              9.998e-15   1.000e-14   -14.000   -14.000     0.000     28.47
O(0)          1.631e-36
   O2              8.155e-37   8.157e-37   -36.089   -36.088     0.000     35.05
S(-2)         1.079e-30
   H2S             9.034e-31   9.036e-31   -30.044   -30.044     0.000     46.99
   HS-             1.758e-31   1.679e-31   -30.755   -30.775    -0.020     16.09
   S-2             8.194e-36   6.832e-36   -35.086   -35.165    -0.079     (0)  
   (H2S)2          0.000e+00   0.000e+00   -60.746   -60.746     0.000     25.45
S(6)          2.522e-04
   SO4-2           2.352e-04   1.961e-04    -3.628    -3.707    -0.079     -0.67
   SrSO4           1.615e-05   1.615e-05    -4.792    -4.792     0.000     26.20
   HSO4-           7.662e-07   7.317e-07    -6.116    -6.136    -0.020     37.40
Sr            2.522e-04
   Sr+2            2.360e-04   1.969e-04    -3.627    -3.706    -0.079    -20.94
   SrSO4           1.615e-05   1.615e-05    -4.792    -4.792     0.000     26.20
   SrOH+           7.723e-12   7.380e-12   -11.112   -11.132    -0.020     (0)  

------------------------------Saturation indices-------------------------------

  Phase               SI** log IAP   log K(423 K, 200 atm)

  Celestite         0.00     -7.41   -7.41  SrSO4
  H2(g)           -10.95    -14.00   -3.05  H2
  H2O(g)            0.71     -0.00   -0.71  H2O
  H2S(g)          -28.37    -36.64   -8.27  H2S
  O2(g)           -32.96    -36.09   -3.13  O2
  Sulfur          -22.35    -19.65    2.71  S

**For a gas, SI = log10(fugacity). Fugacity = pressure * phi / 1 atm.
  For ideal gases, phi = 1.

Reaction step 7.

Using solution 1.	
Using pure phase assemblage 1.	
Using temperature 1.	

-------------------------------Phase assemblage--------------------------------

                                                      Moles in assemblage
Phase               SI  log IAP  log K(T, P)   Initial       Final       Delta

Celestite         0.00    -7.64     -7.64    1.000e+01   1.000e+01  -1.913e-04

-----------------------------Solution composition------------------------------

	Elements           Molality       Moles

	S                 1.913e-04   1.913e-04
	Sr                1.913e-04   1.913e-04

----------------------------Description of solution----------------------------

                                       pH  =   5.816      Charge balance
                                       pe  =   4.425      Adjusted to redox equilibrium
      Specific Conductance (µS/cm, 175°C)  = 217
                          Density (g/cm³)  =   0.90425
                               Volume (L)  =   1.10592
                        Viscosity (mPa s)  =   0.15982
                        Activity of water  =   1.000
                 Ionic strength (mol/kgw)  =   7.238e-04
                       Mass of water (kg)  =   1.000e+00
                 Total alkalinity (eq/kg)  =   1.146e-17
                         Temperature (°C)  = 175.00
                           Pressure (atm)  = 200.00
                  Electrical balance (eq)  =   2.769e-14
 Percent error, 100*(Cat-|An|)/(Cat+|An|)  =   0.00
                               Iterations  =   9
                                  Total H  = 1.110124e+02
                                  Total O  = 5.550698e+01

----------------------------Distribution of species----------------------------

                                               Log       Log       Log    mole V
   Species          Molality    Activity  Molality  Activity     Gamma   cm³/mol

   OH-             3.038e-06   2.908e-06    -5.517    -5.536    -0.019    -17.20
   H+              1.592e-06   1.528e-06    -5.798    -5.816    -0.018      0.00
   H2O             5.551e+01   1.000e+00     1.744    -0.000     0.000     19.92
H(0)          1.480e-24
   H2              7.398e-25   7.399e-25   -24.131   -24.131     0.000     28.47
O(0)          1.832e-12
   O2              9.162e-13   9.164e-13   -12.038   -12.038     0.000     36.25
S(-2)         0.000e+00
   H2S             0.000e+00   0.000e+00   -71.978   -71.978     0.000     49.14
   HS-             0.000e+00   0.000e+00   -72.897   -72.916    -0.019     12.58
   S-2             0.000e+00   0.000e+00   -76.945   -77.020    -0.075     (0)  
   (H2S)2          0.000e+00   0.000e+00  -144.654  -144.654     0.000     18.82
S(6)          1.913e-04
   SO4-2           1.795e-04   1.510e-04    -3.746    -3.821    -0.075    -11.96
   SrSO4           1.042e-05   1.043e-05    -4.982    -4.982     0.000     26.29
   HSO4-           1.445e-06   1.384e-06    -5.840    -5.859    -0.019     34.62
Sr            1.913e-04
   Sr+2            1.809e-04   1.524e-04    -3.743    -3.817    -0.075    -23.11
   SrSO4           1.042e-05   1.043e-05    -4.982    -4.982     0.000     26.29
   SrOH+           5.249e-12   5.028e-12   -11.280   -11.299    -0.019     (0)  

------------------------------Saturation indices-------------------------------

  Phase               SI** log IAP   log K(448 K, 200 atm)

  Celestite         0.00     -7.64   -7.64  SrSO4
  H2(g)           -21.17    -24.13   -2.97  H2
  H2O(g)            0.97     -0.00   -0.97  H2O
  H2S(g)          -70.31    -78.73   -8.42  H2S
  O2(g)            -8.99    -12.04   -3.05  O2
  Sulfur          -53.93    -51.50    2.44  S

**For a gas, SI = log10(fugacity). Fugacity = pressure * phi / 1 atm.
  For ideal gases, phi = 1.

Reaction step 8.

Using solution 1.	
Using pure phase assemblage 1.	
Using temperature 1.	

-------------------------------Phase assemblage--------------------------------

                                                      Moles in assemblage
Phase               SI  log IAP  log K(T, P)   Initial       Final       Delta

Celestite         0.00    -7.87     -7.87    1.000e+01   1.000e+01  -1.439e-04

-----------------------------Solution composition------------------------------

	Elements           Molality       Moles

	S                 1.439e-04   1.439e-04
	Sr                1.439e-04   1.439e-04

----------------------------Description of solution----------------------------

                                       pH  =   5.808      Charge balance
                                       pe  =   4.432      Adjusted to redox equilibrium
      Specific Conductance (µS/cm, 200°C)  = 187
                          Density (g/cm³)  =   0.87802
                               Volume (L)  =   1.13896
                        Viscosity (mPa s)  =   0.13923
                        Activity of water  =   1.000
                 Ionic strength (mol/kgw)  =   5.493e-04
                       Mass of water (kg)  =   1.000e+00
                 Total alkalinity (eq/kg)  =   1.240e-16
                         Temperature (°C)  = 200.00
                           Pressure (atm)  = 200.00
                  Electrical balance (eq)  =   4.078e-13
 Percent error, 100*(Cat-|An|)/(Cat+|An|)  =   0.00
                               Iterations  =   9
                                  Total H  = 1.110124e+02
                                  Total O  = 5.550679e+01

----------------------------Distribution of species----------------------------

                                               Log       Log       Log    mole V
   Species          Molality    Activity  Molality  Activity     Gamma   cm³/mol

   OH-             4.042e-06   3.878e-06    -5.393    -5.411    -0.018    -24.25
   H+              1.619e-06   1.556e-06    -5.791    -5.808    -0.017      0.00
   H2O             5.551e+01   1.000e+00     1.744    -0.000     0.000     20.52
H(0)          1.353e-24
   H2              6.765e-25   6.766e-25   -24.170   -24.170     0.000     28.46
O(0)          5.356e-09
   O2              2.678e-09   2.678e-09    -8.572    -8.572     0.000     37.88
S(-2)         0.000e+00
   H2S             0.000e+00   0.000e+00   -73.440   -73.440     0.000     51.86
   HS-             0.000e+00   0.000e+00   -74.565   -74.583    -0.018      7.32
   S-2             0.000e+00   0.000e+00   -78.325   -78.396    -0.071     (0)  
   (H2S)2          0.000e+00   0.000e+00  -147.641  -147.641     0.000      9.10
S(6)          1.439e-04
   SO4-2           1.351e-04   1.147e-04    -3.869    -3.940    -0.071    -28.48
   SrSO4           6.318e-06   6.319e-06    -5.199    -5.199     0.000     26.36
   HSO4-           2.424e-06   2.325e-06    -5.616    -5.633    -0.018     30.41
Sr            1.439e-04
   Sr+2            1.375e-04   1.169e-04    -3.862    -3.932    -0.071    -26.27
   SrSO4           6.318e-06   6.319e-06    -5.199    -5.199     0.000     26.36
   SrOH+           3.896e-12   3.740e-12   -11.409   -11.427    -0.018     (0)  

------------------------------Saturation indices-------------------------------

  Phase               SI** log IAP   log K(473 K, 200 atm)

  Celestite         0.00     -7.87   -7.87  SrSO4
  H2(g)           -21.30    -24.17   -2.87  H2
  H2O(g)            1.20     -0.00   -1.20  H2O
  H2S(g)          -71.80    -80.39   -8.59  H2S
  O2(g)            -5.62     -8.57   -2.95  O2
  Sulfur          -55.15    -52.96    2.19  S

**For a gas, SI = log10(fugacity). Fugacity = pressure * phi / 1 atm.
  For ideal gases, phi = 1.

Reaction step 9.

Using solution 1.	
Using pure phase assemblage 1.	
Using temperature 1.	

-------------------------------Phase assemblage--------------------------------

                                                      Moles in assemblage
Phase               SI  log IAP  log K(T, P)   Initial       Final       Delta

Celestite         0.00    -8.11     -8.11    1.000e+01   1.000e+01  -1.083e-04

-----------------------------Solution composition------------------------------

	Elements           Molality       Moles

	S                 1.083e-04   1.083e-04
	Sr                1.083e-04   1.083e-04

----------------------------Description of solution----------------------------

                                       pH  =   5.837      Charge balance
                                       pe  =   3.534      Adjusted to redox equilibrium
      Specific Conductance (µS/cm, 225°C)  = 158
                          Density (g/cm³)  =   0.84896
                               Volume (L)  =   1.17794
                        Viscosity (mPa s)  =   0.12351 (solute contributions limited to 200 °C)
                        Activity of water  =   1.000
                 Ionic strength (mol/kgw)  =   4.165e-04
                       Mass of water (kg)  =   1.000e+00
                 Total alkalinity (eq/kg)  =   3.849e-21
                         Temperature (°C)  = 225.00
                           Pressure (atm)  = 200.00
                  Electrical balance (eq)  =  -4.146e-19
 Percent error, 100*(Cat-|An|)/(Cat+|An|)  =  -0.00
                               Iterations  =  17
                                  Total H  = 1.110124e+02
                                  Total O  = 5.550665e+01

----------------------------Distribution of species----------------------------

                                               Log       Log       Log    mole V
   Species          Molality    Activity  Molality  Activity     Gamma   cm³/mol

   OH-             5.152e-06   4.954e-06    -5.288    -5.305    -0.017    -34.99
   H+              1.512e-06   1.456e-06    -5.820    -5.837    -0.016      0.00
   H2O             5.551e+01   1.000e+00     1.744    -0.000     0.000     21.22
H(0)          6.781e-23
   H2              3.390e-23   3.391e-23   -22.470   -22.470     0.000     28.46
O(0)          2.375e-09
   O2              1.188e-09   1.188e-09    -8.925    -8.925     0.000     40.26
S(-2)         0.000e+00
   H2S             0.000e+00   0.000e+00   -67.865   -67.865     0.000     55.64
   HS-             0.000e+00   0.000e+00   -69.190   -69.207    -0.017     -0.76
   S-2             0.000e+00   0.000e+00   -72.661   -72.729    -0.068     (0)  
   (H2S)2          0.000e+00   0.000e+00  -136.566  -136.566     0.000     -5.64
S(6)          1.083e-04
   SO4-2           1.010e-04   8.644e-05    -3.996    -4.063    -0.068    -53.42
   HSO4-           3.640e-06   3.500e-06    -5.439    -5.456    -0.017     23.88
   SrSO4           3.602e-06   3.603e-06    -5.443    -5.443     0.000     26.43
Sr            1.083e-04
   Sr+2            1.047e-04   8.960e-05    -3.980    -4.048    -0.067    -31.06
   SrSO4           3.602e-06   3.603e-06    -5.443    -5.443     0.000     26.43
   SrOH+           3.128e-12   3.009e-12   -11.505   -11.522    -0.017     (0)  

------------------------------Saturation indices-------------------------------

  Phase               SI** log IAP   log K(498 K, 200 atm)

  Celestite         0.00     -8.11   -8.11  SrSO4
  H2(g)           -19.70    -22.47   -2.77  H2
  H2O(g)            1.40     -0.00   -1.40  H2O
  H2S(g)          -66.27    -75.04   -8.78  H2S
  O2(g)            -6.08     -8.93   -2.84  O2
  Sulfur          -51.09    -49.12    1.97  S

**For a gas, SI = log10(fugacity). Fugacity = pressure * phi / 1 atm.
  For ideal gases, phi = 1.

Reaction step 10.

Using solution 1.	
Using pure phase assemblage 1.	
Using temperature 1.	

-------------------------------Phase assemblage--------------------------------

                                                      Moles in assemblage
Phase               SI  log IAP  log K(T, P)   Initial       Final       Delta

Celestite         0.00    -8.34     -8.34    1.000e+01   1.000e+01  -8.296e-05

-----------------------------Solution composition------------------------------

	Elements           Molality       Moles

	S                 8.296e-05   8.296e-05
	Sr                8.296e-05   8.296e-05

----------------------------Description of solution----------------------------

                                       pH  =   5.894      Charge balance
                                       pe  =   2.813      Adjusted to redox equilibrium
      Specific Conductance (µS/cm, 250°C)  = 135
                          Density (g/cm³)  =   0.81648
                               Volume (L)  =   1.22479
                        Viscosity (mPa s)  =   0.11084 (solute contributions limited to 200 °C)
                        Activity of water  =   1.000
                 Ionic strength (mol/kgw)  =   3.205e-04
                       Mass of water (kg)  =   1.000e+00
                 Total alkalinity (eq/kg)  =  -1.366e-20
                         Temperature (°C)  = 250.00
                           Pressure (atm)  = 200.00
                  Electrical balance (eq)  =  -1.907e-19
 Percent error, 100*(Cat-|An|)/(Cat+|An|)  =  -0.00
                               Iterations  =  23
                                  Total H  = 1.110124e+02
                                  Total O  = 5.550655e+01

----------------------------Distribution of species----------------------------

                                               Log       Log       Log    mole V
   Species          Molality    Activity  Molality  Activity     Gamma   cm³/mol

   OH-             6.282e-06   6.048e-06    -5.202    -5.218    -0.017    -52.13
   H+              1.324e-06   1.277e-06    -5.878    -5.894    -0.016      0.00
   H2O             5.551e+01   1.000e+00     1.744    -0.000     0.000     22.07
H(0)          1.333e-21
   H2              6.666e-22   6.667e-22   -21.176   -21.176     0.000     28.46
O(0)          3.484e-09
   O2              1.742e-09   1.742e-09    -8.759    -8.759     0.000     43.95
S(-2)         0.000e+00
   H2S             0.000e+00   0.000e+00   -63.846   -63.846     0.000     61.35
   HS-             0.000e+00   0.000e+00   -65.365   -65.381    -0.017    -13.74
   S-2             0.000e+00   0.000e+00   -68.553   -68.619    -0.065     (0)  
   (H2S)2          0.000e+00   0.000e+00  -128.606  -128.606     0.000    -29.16
S(6)          8.296e-05
   SO4-2           7.607e-05   6.544e-05    -4.119    -4.184    -0.065    -92.97
   HSO4-           4.958e-06   4.773e-06    -5.305    -5.321    -0.017     13.35
   SrSO4           1.935e-06   1.935e-06    -5.713    -5.713     0.000     26.48
Sr            8.296e-05
   Sr+2            8.103e-05   6.973e-05    -4.091    -4.157    -0.065    -38.68
   SrSO4           1.935e-06   1.935e-06    -5.713    -5.713     0.000     26.48
   SrOH+           2.693e-12   2.594e-12   -11.570   -11.586    -0.016     (0)  

------------------------------Saturation indices-------------------------------

  Phase               SI** log IAP   log K(523 K, 200 atm)

  Celestite         0.00     -8.34   -8.34  SrSO4
  H2(g)           -18.51    -21.18   -2.66  H2
  H2O(g)            1.57     -0.00   -1.57  H2O
  H2S(g)          -62.30    -71.28   -8.97  H2S
  O2(g)            -6.03     -8.76   -2.72  O2
  Sulfur          -48.20    -46.43    1.76  S

**For a gas, SI = log10(fugacity). Fugacity = pressure * phi / 1 atm.
  For ideal gases, phi = 1.

------------------
End of simulation.
------------------

------------------------------------
Reading input data for simulation 2.
------------------------------------

