WARNING: Database file from DATABASE keyword is used; command line argument ignored.
   Input file: ss_r
  Output file: ss_r.out
Database file: ../database/phreeqc.dat

------------------
Reading data base.
------------------

	SOLUTION_MASTER_SPECIES
	SOLUTION_SPECIES
	PHASES
	EXCHANGE_MASTER_SPECIES
	EXCHANGE_SPECIES
	SURFACE_MASTER_SPECIES
	SURFACE_SPECIES
	RATES
	END
------------------------------------
Reading input data for simulation 1.
------------------------------------

	DATABASE ../database/phreeqc.dat
	SELECTED_OUTPUT 101
	    file                 ss_r_101.sel
	USER_PUNCH 101
	    headings Mu SC
	    start
	10 PUNCH STR_F$(MU, 20, 12)
	20 PUNCH STR_F$(SC, 20, 10)
	    end
	KNOBS
	 step_size 2
	 pe_step_size 2
	 iterations 300
	 diagonal_scale true
	RATES
	 CO2_escape
	 10 P_CO2 = SI("CO2(g)")
	 12 if P_CO2 < -3.4999 then goto 30
	 20 rate = (P_CO2 + 3.5)/3600/5e3
	 30 save rate * time
	SOLUTION 1-11
	 pH 7.0 CO2(g) -3.5
	 pe 14 O2(g) -1.0
	 Ca 1.5 Calcite
	 Zn 1.5e-9
	 C(4) 1.0 charge
	SOLUTION 0
	pH 7.0 Calcite 0.0
	pe 14 O2(g) -1.0
	Ca 1.5
	Zn 1.5e-3
	C(4) 1.0 charge
	END
-------------------------------------------
Beginning of initial solution calculations.
-------------------------------------------

Initial solution 0.	

-----------------------------Solution composition------------------------------

	Elements           Molality       Moles

	C(4)              3.256e-03   3.256e-03  Charge balance
	Ca                1.500e-03   1.500e-03
	Zn                1.500e-06   1.500e-06

----------------------------Description of solution----------------------------

                                       pH  =   7.370      Equilibrium with Calcite
                                       pe  =  13.177      Equilibrium with O2(g)
      Specific Conductance (µS/cm,  25°C)  = 280
                          Density (g/cm³)  =   0.99724
                               Volume (L)  =   1.00303
                        Activity of water  =   1.000
                 Ionic strength (mol/kgw)  =   4.408e-03
                       Mass of water (kg)  =   1.000e+00
                 Total alkalinity (eq/kg)  =   3.003e-03
                       Total CO2 (mol/kg)  =   3.256e-03
                         Temperature (°C)  =  25.00
                  Electrical balance (eq)  =   8.123e-15
 Percent error, 100*(Cat-|An|)/(Cat+|An|)  =   0.00
                               Iterations  =   6
                                  Total H  = 1.110154e+02
                                  Total O  = 5.551598e+01

----------------------------Distribution of species----------------------------

                                               Log       Log       Log    mole V
   Species          Molality    Activity  Molality  Activity     Gamma   cm³/mol

   OH-             2.550e-07   2.372e-07    -6.593    -6.625    -0.031     -4.07
   H+              4.555e-08   4.267e-08    -7.342    -7.370    -0.028      0.00
   H2O             5.551e+01   9.999e-01     1.744    -0.000     0.000     18.07
C(4)          3.256e-03
   HCO3-           2.941e-03   2.743e-03    -2.531    -2.562    -0.030     24.72
   CO2             2.630e-04   2.632e-04    -3.580    -3.580     0.000     34.43
   CaHCO3+         4.120e-05   3.846e-05    -4.385    -4.415    -0.030      9.70
   CaCO3           5.559e-06   5.565e-06    -5.255    -5.255     0.000    -14.60
   CO3-2           3.985e-06   3.015e-06    -5.400    -5.521    -0.121     -5.14
   ZnCO3           3.783e-07   3.787e-07    -6.422    -6.422     0.000     (0)  
   ZnHCO3+         2.335e-07   2.174e-07    -6.632    -6.663    -0.031     (0)  
   Zn(CO3)2-2      3.249e-08   2.441e-08    -7.488    -7.613    -0.124     (0)  
   (CO2)2          1.270e-09   1.272e-09    -8.896    -8.896     0.000     68.87
Ca            1.500e-03
   Ca+2            1.453e-03   1.099e-03    -2.838    -2.959    -0.121    -18.03
   CaHCO3+         4.120e-05   3.846e-05    -4.385    -4.415    -0.030      9.70
   CaCO3           5.559e-06   5.565e-06    -5.255    -5.255     0.000    -14.60
   CaOH+           4.590e-09   4.273e-09    -8.338    -8.369    -0.031     (0)  
H(0)          0.000e+00
   H2              0.000e+00   0.000e+00   -44.244   -44.244     0.000     28.61
O(0)          2.560e-04
   O2              1.280e-04   1.281e-04    -3.893    -3.892     0.000     30.40
Zn            1.500e-06
   Zn+2            8.340e-07   6.295e-07    -6.079    -6.201    -0.122    -25.25
   ZnCO3           3.783e-07   3.787e-07    -6.422    -6.422     0.000     (0)  
   ZnHCO3+         2.335e-07   2.174e-07    -6.632    -6.663    -0.031     (0)  
   Zn(CO3)2-2      3.249e-08   2.441e-08    -7.488    -7.613    -0.124     (0)  
   ZnOH+           1.737e-08   1.617e-08    -7.760    -7.791    -0.031     (0)  
   Zn(OH)2         4.347e-09   4.351e-09    -8.362    -8.361     0.000     (0)  
   Zn(OH)3-        3.463e-13   3.224e-13   -12.461   -12.492    -0.031     (0)  
   Zn(OH)4-2       1.594e-18   1.197e-18   -17.797   -17.922    -0.124     (0)  

------------------------------Saturation indices-------------------------------

  Phase               SI** log IAP   log K(298 K,   1 atm)

  Aragonite        -0.14     -8.48   -8.34  CaCO3
  Calcite           0.00     -8.48   -8.48  CaCO3
  CO2(g)           -2.11     -3.58   -1.47  CO2
  H2(g)           -41.14    -44.24   -3.10  H2
  H2O(g)           -1.50     -0.00    1.50  H2O
  O2(g)            -1.00     -3.89   -2.89  O2	 Pressure   0.1 atm, phi 1.000
  Smithsonite      -1.72    -11.72  -10.00  ZnCO3
  Zn(OH)2(e)       -2.96      8.54   11.50  Zn(OH)2

**For a gas, SI = log10(fugacity). Fugacity = pressure * phi / 1 atm.
  For ideal gases, phi = 1.

Initial solution 1.	

-----------------------------Solution composition------------------------------

	Elements           Molality       Moles

	C(4)              9.803e-04   9.803e-04  Charge balance
	Ca                4.934e-04   4.934e-04  Equilibrium with Calcite
	Zn                1.500e-12   1.500e-12

----------------------------Description of solution----------------------------

                                       pH  =   8.279      Equilibrium with CO2(g)
                                       pe  =  12.268      Equilibrium with O2(g)
      Specific Conductance (µS/cm,  25°C)  = 96
                          Density (g/cm³)  =   0.99711
                               Volume (L)  =   1.00298
                        Activity of water  =   1.000
                 Ionic strength (mol/kgw)  =   1.463e-03
                       Mass of water (kg)  =   1.000e+00
                 Total alkalinity (eq/kg)  =   9.867e-04
                       Total CO2 (mol/kg)  =   9.803e-04
                         Temperature (°C)  =  25.00
                  Electrical balance (eq)  =  -7.220e-12
 Percent error, 100*(Cat-|An|)/(Cat+|An|)  =  -0.00
                               Iterations  =  12
                                  Total H  = 1.110134e+02
                                  Total O  = 5.550940e+01

----------------------------Distribution of species----------------------------

                                               Log       Log       Log    mole V
   Species          Molality    Activity  Molality  Activity     Gamma   cm³/mol

   OH-             2.010e-06   1.925e-06    -5.697    -5.716    -0.019     -4.10
   H+              5.474e-09   5.257e-09    -8.262    -8.279    -0.018      0.00
   H2O             5.551e+01   1.000e+00     1.744    -0.000     0.000     18.07
C(4)          9.803e-04
   HCO3-           9.494e-04   9.103e-04    -3.023    -3.041    -0.018     24.69
   CO2             1.076e-05   1.076e-05    -4.968    -4.968     0.000     34.43
   CO3-2           9.608e-06   8.120e-06    -5.017    -5.090    -0.073     -5.25
   CaCO3           5.563e-06   5.565e-06    -5.255    -5.255     0.000    -14.60
   CaHCO3+         4.940e-06   4.738e-06    -5.306    -5.324    -0.018      9.68
   (CO2)2          2.125e-12   2.125e-12   -11.673   -11.673     0.000     68.87
   ZnCO3           6.181e-13   6.183e-13   -12.209   -12.209     0.000     (0)  
   Zn(CO3)2-2      1.274e-13   1.073e-13   -12.895   -12.969    -0.074     (0)  
   ZnHCO3+         4.565e-14   4.374e-14   -13.341   -13.359    -0.019     (0)  
Ca            4.934e-04
   Ca+2            4.828e-04   4.080e-04    -3.316    -3.389    -0.073    -18.12
   CaCO3           5.563e-06   5.565e-06    -5.255    -5.255     0.000    -14.60
   CaHCO3+         4.940e-06   4.738e-06    -5.306    -5.324    -0.018      9.68
   CaOH+           1.344e-08   1.288e-08    -7.872    -7.890    -0.019     (0)  
H(0)          0.000e+00
   H2              0.000e+00   0.000e+00   -44.244   -44.244     0.000     28.61
O(0)          2.561e-04
   O2              1.281e-04   1.281e-04    -3.893    -3.892     0.000     30.40
Zn            1.500e-12
   ZnCO3           6.181e-13   6.183e-13   -12.209   -12.209     0.000     (0)  
   Zn+2            4.519e-13   3.816e-13   -12.345   -12.418    -0.073    -25.34
   Zn(OH)2         1.738e-13   1.738e-13   -12.760   -12.760     0.000     (0)  
   Zn(CO3)2-2      1.274e-13   1.073e-13   -12.895   -12.969    -0.074     (0)  
   ZnOH+           8.307e-14   7.959e-14   -13.081   -13.099    -0.019     (0)  
   ZnHCO3+         4.565e-14   4.374e-14   -13.341   -13.359    -0.019     (0)  
   Zn(OH)3-        1.091e-16   1.045e-16   -15.962   -15.981    -0.019     (0)  
   Zn(OH)4-2       3.739e-21   3.151e-21   -20.427   -20.501    -0.074     (0)  

------------------------------Saturation indices-------------------------------

  Phase               SI** log IAP   log K(298 K,   1 atm)

  Aragonite        -0.14     -8.48   -8.34  CaCO3
  Calcite           0.00     -8.48   -8.48  CaCO3
  CO2(g)           -3.50     -4.97   -1.47  CO2	 Pressure   0.0 atm, phi 1.000
  H2(g)           -41.14    -44.24   -3.10  H2
  H2O(g)           -1.50     -0.00    1.50  H2O
  O2(g)            -1.00     -3.89   -2.89  O2	 Pressure   0.1 atm, phi 1.000
  Smithsonite      -7.51    -17.51  -10.00  ZnCO3
  Zn(OH)2(e)       -7.36      4.14   11.50  Zn(OH)2

**For a gas, SI = log10(fugacity). Fugacity = pressure * phi / 1 atm.
  For ideal gases, phi = 1.

------------------
End of simulation.
------------------

------------------------------------
Reading input data for simulation 2.
------------------------------------

	KINETICS 1-10
	 CO2_escape
	 formula CO2 -1 
	SOLID_SOLUTION 1-10
	 CaZnCO3
	 comp1 Calcite 0
	 comp2 Smithsonite 0
	 gugg_nondimensional 4
	EQUILIBRIUM_PHASES 1-10
	 Halite -19 #4e-8
	END
-------------------------------------
Description of Solid Solution CaZnCO3
-------------------------------------

	                              Temperature: 298.15 kelvin
	                       A0 (dimensionless): 4
	                       A1 (dimensionless): 0
	                              A0 (kJ/mol): 9.91611
	                              A1 (kJ/mol): 0

	    Critical mole-fraction of component 2: 0.5
	                     Critical temperature: 596.3 kelvin

(The critical temperature calculation assumes that the Guggenheim model
defined at 298.15 kelvin is valid at the critical temperature.)


	 Spinodal-gap mole fractions, component 2: 0.146447	0.853553
	   Miscibility-gap fractions, component 2: 0.021248	0.978752

			Eutectic Point Calculations

	     Aqueous activity ratio (comp2/comp1): 0.0301877
	 Log aqueous activity ratio (comp2/comp1): -1.52017
	 Aqueous activity fraction of component 2: 0.0293031
	                    Log IAP (component 2): -10.0085
	                    Log IAP (component 1): -8.48837
	                               Log Sum Pi: -8.47546

Local minimum in the solidus curve coresponding to a maximum
in the minimum stoichiometric saturation curve.

	       Solid mole fraction of component 2: 0.0624599
	                    Log IAP (component 2): -9.67745
	                    Log IAP (component 1): -8.50106
	                               Log Sum Pi: -8.47305
------------------
End of simulation.
------------------

------------------------------------
Reading input data for simulation 3.
------------------------------------

	SELECTED_OUTPUT
	TRANSPORT
	 cells 10
	 shifts 10
	 timest 3600
	 diffc 0
	 punch_frequency 5
	USER_GRAPH
WARNING: No cell-lengths were read; length = 1 m assumed.
WARNING: No dispersivities were read; disp = 0 assumed.
	 -plot x
	 -initial_solutions false
	 -head x Ca Zn SI_cc
	 10 graph_x dist
	 20 graph_y tot("Ca")*1e3, tot("Zn")*1e6 #, SI("Calcite")
	END
------------------------------------
Beginning of transport calculations.
------------------------------------

-------------------------------
Equilibrating initial solutions
-------------------------------

Using solution 1.	
Using pure phase assemblage 1.	
Using solid solution assemblage 1.	

-------------------------------Phase assemblage--------------------------------

                                                      Moles in assemblage
Phase               SI  log IAP  log K(T, P)   Initial       Final       Delta

Halite          -19.00   -17.43      1.57    1.000e+01   1.000e+01  -2.012e-09

--------------------------------Solid solutions--------------------------------


Solid solution                Component        Moles  Delta moles   Mole fract

CaZnCO3                                     0.00e+00
                                Calcite     0.00e+00     5.25e-15     0.00e+00
                            Smithsonite     0.00e+00     2.19e-23     0.00e+00

-----------------------------Solution composition------------------------------

	Elements           Molality       Moles

	C                 9.803e-04   9.803e-04
	Ca                4.934e-04   4.934e-04
	Cl                2.012e-09   2.012e-09
	Na                2.012e-09   2.012e-09
	Zn                1.500e-12   1.500e-12

----------------------------Description of solution----------------------------

                                       pH  =   8.279      Charge balance
                                       pe  =  12.268      Adjusted to redox equilibrium
      Specific Conductance (µS/cm,  25°C)  = 96
                          Density (g/cm³)  =   0.99711
                               Volume (L)  =   1.00298
                        Activity of water  =   1.000
                 Ionic strength (mol/kgw)  =   1.463e-03
                       Mass of water (kg)  =   1.000e+00
                 Total alkalinity (eq/kg)  =   9.867e-04
                       Total CO2 (mol/kg)  =   9.803e-04
                         Temperature (°C)  =  25.00
                  Electrical balance (eq)  =  -7.220e-12
 Percent error, 100*(Cat-|An|)/(Cat+|An|)  =  -0.00
                               Iterations  =  10
                                  Total H  = 1.110134e+02
                                  Total O  = 5.550940e+01

----------------------------Distribution of species----------------------------

                                               Log       Log       Log    mole V
   Species          Molality    Activity  Molality  Activity     Gamma   cm³/mol

   OH-             2.010e-06   1.925e-06    -5.697    -5.716    -0.019     -4.10
   H+              5.474e-09   5.257e-09    -8.262    -8.279    -0.018      0.00
   H2O             5.551e+01   1.000e+00     1.744    -0.000     0.000     18.07
C(-4)         0.000e+00
   CH4             0.000e+00   0.000e+00  -144.953  -144.953     0.000     35.46
C(4)          9.803e-04
   HCO3-           9.494e-04   9.103e-04    -3.023    -3.041    -0.018     24.69
   CO2             1.076e-05   1.076e-05    -4.968    -4.968     0.000     34.43
   CO3-2           9.608e-06   8.120e-06    -5.017    -5.090    -0.073     -5.25
   CaCO3           5.563e-06   5.565e-06    -5.255    -5.255     0.000    -14.60
   CaHCO3+         4.940e-06   4.738e-06    -5.306    -5.324    -0.018      9.68
   (CO2)2          2.125e-12   2.125e-12   -11.673   -11.673     0.000     68.87
   NaHCO3          9.863e-13   9.866e-13   -12.006   -12.006     0.000      1.80
   ZnCO3           6.181e-13   6.183e-13   -12.209   -12.209     0.000     (0)  
   NaCO3-          3.041e-13   2.914e-13   -12.517   -12.535    -0.019     -1.02
   Zn(CO3)2-2      1.274e-13   1.073e-13   -12.895   -12.969    -0.074     (0)  
   ZnHCO3+         4.565e-14   4.374e-14   -13.341   -13.359    -0.019     (0)  
Ca            4.934e-04
   Ca+2            4.828e-04   4.080e-04    -3.316    -3.389    -0.073    -18.12
   CaCO3           5.563e-06   5.565e-06    -5.255    -5.255     0.000    -14.60
   CaHCO3+         4.940e-06   4.738e-06    -5.306    -5.324    -0.018      9.68
   CaOH+           1.344e-08   1.288e-08    -7.872    -7.890    -0.019     (0)  
Cl            2.012e-09
   Cl-             2.012e-09   1.928e-09    -8.696    -8.715    -0.019     18.08
   ZnOHCl          4.632e-21   4.634e-21   -20.334   -20.334     0.000     (0)  
   ZnCl+           2.067e-21   1.980e-21   -20.685   -20.703    -0.019    -13.90
   ZnCl2           3.996e-30   3.997e-30   -29.398   -29.398     0.000    102.03
   ZnCl3-          9.023e-39   8.645e-39   -38.045   -38.063    -0.019     16.98
   ZnCl4-2         0.000e+00   0.000e+00   -47.005   -47.078    -0.073    145.19
H(0)          0.000e+00
   H2              0.000e+00   0.000e+00   -44.244   -44.244     0.000     28.61
Na            2.012e-09
   Na+             2.011e-09   1.927e-09    -8.697    -8.715    -0.018     -1.47
   NaHCO3          9.863e-13   9.866e-13   -12.006   -12.006     0.000      1.80
   NaCO3-          3.041e-13   2.914e-13   -12.517   -12.535    -0.019     -1.02
   NaOH            3.709e-25   3.710e-25   -24.431   -24.431     0.000     (0)  
O(0)          2.561e-04
   O2              1.281e-04   1.281e-04    -3.893    -3.892     0.000     30.40
Zn            1.500e-12
   ZnCO3           6.181e-13   6.183e-13   -12.209   -12.209     0.000     (0)  
   Zn+2            4.519e-13   3.816e-13   -12.345   -12.418    -0.073    -25.34
   Zn(OH)2         1.738e-13   1.738e-13   -12.760   -12.760     0.000     (0)  
   Zn(CO3)2-2      1.274e-13   1.073e-13   -12.895   -12.969    -0.074     (0)  
   ZnOH+           8.307e-14   7.959e-14   -13.081   -13.099    -0.019     (0)  
   ZnHCO3+         4.565e-14   4.374e-14   -13.341   -13.359    -0.019     (0)  
   Zn(OH)3-        1.091e-16   1.045e-16   -15.962   -15.981    -0.019     (0)  
   ZnOHCl          4.632e-21   4.634e-21   -20.334   -20.334     0.000     (0)  
   Zn(OH)4-2       3.739e-21   3.151e-21   -20.427   -20.501    -0.074     (0)  
   ZnCl+           2.067e-21   1.980e-21   -20.685   -20.703    -0.019    -13.90
   ZnCl2           3.996e-30   3.997e-30   -29.398   -29.398     0.000    102.03
   ZnCl3-          9.023e-39   8.645e-39   -38.045   -38.063    -0.019     16.98
   ZnCl4-2         0.000e+00   0.000e+00   -47.005   -47.078    -0.073    145.19

------------------------------Saturation indices-------------------------------

  Phase               SI** log IAP   log K(298 K,   1 atm)

  Aragonite        -0.14     -8.48   -8.34  CaCO3
  Calcite          -0.00     -8.48   -8.48  CaCO3
  CH4(g)         -142.15   -144.95   -2.80  CH4
  CO2(g)           -3.50     -4.97   -1.47  CO2
  H2(g)           -41.14    -44.24   -3.10  H2
  H2O(g)           -1.50     -0.00    1.50  H2O
  Halite          -19.00    -17.43    1.57  NaCl
  O2(g)            -1.00     -3.89   -2.89  O2
  Smithsonite      -7.51    -17.51  -10.00  ZnCO3
  Zn(OH)2(e)       -7.36      4.14   11.50  Zn(OH)2

**For a gas, SI = log10(fugacity). Fugacity = pressure * phi / 1 atm.
  For ideal gases, phi = 1.

Using solution 2.	
Using pure phase assemblage 2.	
Using solid solution assemblage 2.	

-------------------------------Phase assemblage--------------------------------

                                                      Moles in assemblage
Phase               SI  log IAP  log K(T, P)   Initial       Final       Delta

Halite          -19.00   -17.43      1.57    1.000e+01   1.000e+01  -2.012e-09

--------------------------------Solid solutions--------------------------------


Solid solution                Component        Moles  Delta moles   Mole fract

CaZnCO3                                     0.00e+00
                                Calcite     0.00e+00     5.25e-15     0.00e+00
                            Smithsonite     0.00e+00     2.19e-23     0.00e+00

-----------------------------Solution composition------------------------------

	Elements           Molality       Moles

	C                 9.803e-04   9.803e-04
	Ca                4.934e-04   4.934e-04
	Cl                2.012e-09   2.012e-09
	Na                2.012e-09   2.012e-09
	Zn                1.500e-12   1.500e-12

----------------------------Description of solution----------------------------

                                       pH  =   8.279      Charge balance
                                       pe  =  12.268      Adjusted to redox equilibrium
      Specific Conductance (µS/cm,  25°C)  = 96
                          Density (g/cm³)  =   0.99711
                               Volume (L)  =   1.00298
                        Activity of water  =   1.000
                 Ionic strength (mol/kgw)  =   1.463e-03
                       Mass of water (kg)  =   1.000e+00
                 Total alkalinity (eq/kg)  =   9.867e-04
                       Total CO2 (mol/kg)  =   9.803e-04
                         Temperature (°C)  =  25.00
                  Electrical balance (eq)  =  -7.220e-12
 Percent error, 100*(Cat-|An|)/(Cat+|An|)  =  -0.00
                               Iterations  =  10
                                  Total H  = 1.110134e+02
                                  Total O  = 5.550940e+01

----------------------------Distribution of species----------------------------

                                               Log       Log       Log    mole V
   Species          Molality    Activity  Molality  Activity     Gamma   cm³/mol

   OH-             2.010e-06   1.925e-06    -5.697    -5.716    -0.019     -4.10
   H+              5.474e-09   5.257e-09    -8.262    -8.279    -0.018      0.00
   H2O             5.551e+01   1.000e+00     1.744    -0.000     0.000     18.07
C(-4)         0.000e+00
   CH4             0.000e+00   0.000e+00  -144.953  -144.953     0.000     35.46
C(4)          9.803e-04
   HCO3-           9.494e-04   9.103e-04    -3.023    -3.041    -0.018     24.69
   CO2             1.076e-05   1.076e-05    -4.968    -4.968     0.000     34.43
   CO3-2           9.608e-06   8.120e-06    -5.017    -5.090    -0.073     -5.25
   CaCO3           5.563e-06   5.565e-06    -5.255    -5.255     0.000    -14.60
   CaHCO3+         4.940e-06   4.738e-06    -5.306    -5.324    -0.018      9.68
   (CO2)2          2.125e-12   2.125e-12   -11.673   -11.673     0.000     68.87
   NaHCO3          9.863e-13   9.866e-13   -12.006   -12.006     0.000      1.80
   ZnCO3           6.181e-13   6.183e-13   -12.209   -12.209     0.000     (0)  
   NaCO3-          3.041e-13   2.914e-13   -12.517   -12.535    -0.019     -1.02
   Zn(CO3)2-2      1.274e-13   1.073e-13   -12.895   -12.969    -0.074     (0)  
   ZnHCO3+         4.565e-14   4.374e-14   -13.341   -13.359    -0.019     (0)  
Ca            4.934e-04
   Ca+2            4.828e-04   4.080e-04    -3.316    -3.389    -0.073    -18.12
   CaCO3           5.563e-06   5.565e-06    -5.255    -5.255     0.000    -14.60
   CaHCO3+         4.940e-06   4.738e-06    -5.306    -5.324    -0.018      9.68
   CaOH+           1.344e-08   1.288e-08    -7.872    -7.890    -0.019     (0)  
Cl            2.012e-09
   Cl-             2.012e-09   1.928e-09    -8.696    -8.715    -0.019     18.08
   ZnOHCl          4.632e-21   4.634e-21   -20.334   -20.334     0.000     (0)  
   ZnCl+           2.067e-21   1.980e-21   -20.685   -20.703    -0.019    -13.90
   ZnCl2           3.996e-30   3.997e-30   -29.398   -29.398     0.000    102.03
   ZnCl3-          9.023e-39   8.645e-39   -38.045   -38.063    -0.019     16.98
   ZnCl4-2         0.000e+00   0.000e+00   -47.005   -47.078    -0.073    145.19
H(0)          0.000e+00
   H2              0.000e+00   0.000e+00   -44.244   -44.244     0.000     28.61
Na            2.012e-09
   Na+             2.011e-09   1.927e-09    -8.697    -8.715    -0.018     -1.47
   NaHCO3          9.863e-13   9.866e-13   -12.006   -12.006     0.000      1.80
   NaCO3-          3.041e-13   2.914e-13   -12.517   -12.535    -0.019     -1.02
   NaOH            3.709e-25   3.710e-25   -24.431   -24.431     0.000     (0)  
O(0)          2.561e-04
   O2              1.281e-04   1.281e-04    -3.893    -3.892     0.000     30.40
Zn            1.500e-12
   ZnCO3           6.181e-13   6.183e-13   -12.209   -12.209     0.000     (0)  
   Zn+2            4.519e-13   3.816e-13   -12.345   -12.418    -0.073    -25.34
   Zn(OH)2         1.738e-13   1.738e-13   -12.760   -12.760     0.000     (0)  
   Zn(CO3)2-2      1.274e-13   1.073e-13   -12.895   -12.969    -0.074     (0)  
   ZnOH+           8.307e-14   7.959e-14   -13.081   -13.099    -0.019     (0)  
   ZnHCO3+         4.565e-14   4.374e-14   -13.341   -13.359    -0.019     (0)  
   Zn(OH)3-        1.091e-16   1.045e-16   -15.962   -15.981    -0.019     (0)  
   ZnOHCl          4.632e-21   4.634e-21   -20.334   -20.334     0.000     (0)  
   Zn(OH)4-2       3.739e-21   3.151e-21   -20.427   -20.501    -0.074     (0)  
   ZnCl+           2.067e-21   1.980e-21   -20.685   -20.703    -0.019    -13.90
   ZnCl2           3.996e-30   3.997e-30   -29.398   -29.398     0.000    102.03
   ZnCl3-          9.023e-39   8.645e-39   -38.045   -38.063    -0.019     16.98
   ZnCl4-2         0.000e+00   0.000e+00   -47.005   -47.078    -0.073    145.19

------------------------------Saturation indices-------------------------------

  Phase               SI** log IAP   log K(298 K,   1 atm)

  Aragonite        -0.14     -8.48   -8.34  CaCO3
  Calcite          -0.00     -8.48   -8.48  CaCO3
  CH4(g)         -142.15   -144.95   -2.80  CH4
  CO2(g)           -3.50     -4.97   -1.47  CO2
  H2(g)           -41.14    -44.24   -3.10  H2
  H2O(g)           -1.50     -0.00    1.50  H2O
  Halite          -19.00    -17.43    1.57  NaCl
  O2(g)            -1.00     -3.89   -2.89  O2
  Smithsonite      -7.51    -17.51  -10.00  ZnCO3
  Zn(OH)2(e)       -7.36      4.14   11.50  Zn(OH)2

**For a gas, SI = log10(fugacity). Fugacity = pressure * phi / 1 atm.
  For ideal gases, phi = 1.

Using solution 3.	
Using pure phase assemblage 3.	
Using solid solution assemblage 3.	

-------------------------------Phase assemblage--------------------------------

                                                      Moles in assemblage
Phase               SI  log IAP  log K(T, P)   Initial       Final       Delta

Halite          -19.00   -17.43      1.57    1.000e+01   1.000e+01  -2.012e-09

--------------------------------Solid solutions--------------------------------


Solid solution                Component        Moles  Delta moles   Mole fract

CaZnCO3                                     0.00e+00
                                Calcite     0.00e+00     5.25e-15     0.00e+00
                            Smithsonite     0.00e+00     2.19e-23     0.00e+00

-----------------------------Solution composition------------------------------

	Elements           Molality       Moles

	C                 9.803e-04   9.803e-04
	Ca                4.934e-04   4.934e-04
	Cl                2.012e-09   2.012e-09
	Na                2.012e-09   2.012e-09
	Zn                1.500e-12   1.500e-12

----------------------------Description of solution----------------------------

                                       pH  =   8.279      Charge balance
                                       pe  =  12.268      Adjusted to redox equilibrium
      Specific Conductance (µS/cm,  25°C)  = 96
                          Density (g/cm³)  =   0.99711
                               Volume (L)  =   1.00298
                        Activity of water  =   1.000
                 Ionic strength (mol/kgw)  =   1.463e-03
                       Mass of water (kg)  =   1.000e+00
                 Total alkalinity (eq/kg)  =   9.867e-04
                       Total CO2 (mol/kg)  =   9.803e-04
                         Temperature (°C)  =  25.00
                  Electrical balance (eq)  =  -7.220e-12
 Percent error, 100*(Cat-|An|)/(Cat+|An|)  =  -0.00
                               Iterations  =  10
                                  Total H  = 1.110134e+02
                                  Total O  = 5.550940e+01

----------------------------Distribution of species----------------------------

                                               Log       Log       Log    mole V
   Species          Molality    Activity  Molality  Activity     Gamma   cm³/mol

   OH-             2.010e-06   1.925e-06    -5.697    -5.716    -0.019     -4.10
   H+              5.474e-09   5.257e-09    -8.262    -8.279    -0.018      0.00
   H2O             5.551e+01   1.000e+00     1.744    -0.000     0.000     18.07
C(-4)         0.000e+00
   CH4             0.000e+00   0.000e+00  -144.953  -144.953     0.000     35.46
C(4)          9.803e-04
   HCO3-           9.494e-04   9.103e-04    -3.023    -3.041    -0.018     24.69
   CO2             1.076e-05   1.076e-05    -4.968    -4.968     0.000     34.43
   CO3-2           9.608e-06   8.120e-06    -5.017    -5.090    -0.073     -5.25
   CaCO3           5.563e-06   5.565e-06    -5.255    -5.255     0.000    -14.60
   CaHCO3+         4.940e-06   4.738e-06    -5.306    -5.324    -0.018      9.68
   (CO2)2          2.125e-12   2.125e-12   -11.673   -11.673     0.000     68.87
   NaHCO3          9.863e-13   9.866e-13   -12.006   -12.006     0.000      1.80
   ZnCO3           6.181e-13   6.183e-13   -12.209   -12.209     0.000     (0)  
   NaCO3-          3.041e-13   2.914e-13   -12.517   -12.535    -0.019     -1.02
   Zn(CO3)2-2      1.274e-13   1.073e-13   -12.895   -12.969    -0.074     (0)  
   ZnHCO3+         4.565e-14   4.374e-14   -13.341   -13.359    -0.019     (0)  
Ca            4.934e-04
   Ca+2            4.828e-04   4.080e-04    -3.316    -3.389    -0.073    -18.12
   CaCO3           5.563e-06   5.565e-06    -5.255    -5.255     0.000    -14.60
   CaHCO3+         4.940e-06   4.738e-06    -5.306    -5.324    -0.018      9.68
   CaOH+           1.344e-08   1.288e-08    -7.872    -7.890    -0.019     (0)  
Cl            2.012e-09
   Cl-             2.012e-09   1.928e-09    -8.696    -8.715    -0.019     18.08
   ZnOHCl          4.632e-21   4.634e-21   -20.334   -20.334     0.000     (0)  
   ZnCl+           2.067e-21   1.980e-21   -20.685   -20.703    -0.019    -13.90
   ZnCl2           3.996e-30   3.997e-30   -29.398   -29.398     0.000    102.03
   ZnCl3-          9.023e-39   8.645e-39   -38.045   -38.063    -0.019     16.98
   ZnCl4-2         0.000e+00   0.000e+00   -47.005   -47.078    -0.073    145.19
H(0)          0.000e+00
   H2              0.000e+00   0.000e+00   -44.244   -44.244     0.000     28.61
Na            2.012e-09
   Na+             2.011e-09   1.927e-09    -8.697    -8.715    -0.018     -1.47
   NaHCO3          9.863e-13   9.866e-13   -12.006   -12.006     0.000      1.80
   NaCO3-          3.041e-13   2.914e-13   -12.517   -12.535    -0.019     -1.02
   NaOH            3.709e-25   3.710e-25   -24.431   -24.431     0.000     (0)  
O(0)          2.561e-04
   O2              1.281e-04   1.281e-04    -3.893    -3.892     0.000     30.40
Zn            1.500e-12
   ZnCO3           6.181e-13   6.183e-13   -12.209   -12.209     0.000     (0)  
   Zn+2            4.519e-13   3.816e-13   -12.345   -12.418    -0.073    -25.34
   Zn(OH)2         1.738e-13   1.738e-13   -12.760   -12.760     0.000     (0)  
   Zn(CO3)2-2      1.274e-13   1.073e-13   -12.895   -12.969    -0.074     (0)  
   ZnOH+           8.307e-14   7.959e-14   -13.081   -13.099    -0.019     (0)  
   ZnHCO3+         4.565e-14   4.374e-14   -13.341   -13.359    -0.019     (0)  
   Zn(OH)3-        1.091e-16   1.045e-16   -15.962   -15.981    -0.019     (0)  
   ZnOHCl          4.632e-21   4.634e-21   -20.334   -20.334     0.000     (0)  
   Zn(OH)4-2       3.739e-21   3.151e-21   -20.427   -20.501    -0.074     (0)  
   ZnCl+           2.067e-21   1.980e-21   -20.685   -20.703    -0.019    -13.90
   ZnCl2           3.996e-30   3.997e-30   -29.398   -29.398     0.000    102.03
   ZnCl3-          9.023e-39   8.645e-39   -38.045   -38.063    -0.019     16.98
   ZnCl4-2         0.000e+00   0.000e+00   -47.005   -47.078    -0.073    145.19

------------------------------Saturation indices-------------------------------

  Phase               SI** log IAP   log K(298 K,   1 atm)

  Aragonite        -0.14     -8.48   -8.34  CaCO3
  Calcite          -0.00     -8.48   -8.48  CaCO3
  CH4(g)         -142.15   -144.95   -2.80  CH4
  CO2(g)           -3.50     -4.97   -1.47  CO2
  H2(g)           -41.14    -44.24   -3.10  H2
  H2O(g)           -1.50     -0.00    1.50  H2O
  Halite          -19.00    -17.43    1.57  NaCl
  O2(g)            -1.00     -3.89   -2.89  O2
  Smithsonite      -7.51    -17.51  -10.00  ZnCO3
  Zn(OH)2(e)       -7.36      4.14   11.50  Zn(OH)2

**For a gas, SI = log10(fugacity). Fugacity = pressure * phi / 1 atm.
  For ideal gases, phi = 1.

Using solution 4.	
Using pure phase assemblage 4.	
Using solid solution assemblage 4.	

-------------------------------Phase assemblage--------------------------------

                                                      Moles in assemblage
Phase               SI  log IAP  log K(T, P)   Initial       Final       Delta

Halite          -19.00   -17.43      1.57    1.000e+01   1.000e+01  -2.012e-09

--------------------------------Solid solutions--------------------------------


Solid solution                Component        Moles  Delta moles   Mole fract

CaZnCO3                                     0.00e+00
                                Calcite     0.00e+00     5.25e-15     0.00e+00
                            Smithsonite     0.00e+00     2.19e-23     0.00e+00

-----------------------------Solution composition------------------------------

	Elements           Molality       Moles

	C                 9.803e-04   9.803e-04
	Ca                4.934e-04   4.934e-04
	Cl                2.012e-09   2.012e-09
	Na                2.012e-09   2.012e-09
	Zn                1.500e-12   1.500e-12

----------------------------Description of solution----------------------------

                                       pH  =   8.279      Charge balance
                                       pe  =  12.268      Adjusted to redox equilibrium
      Specific Conductance (µS/cm,  25°C)  = 96
                          Density (g/cm³)  =   0.99711
                               Volume (L)  =   1.00298
                        Activity of water  =   1.000
                 Ionic strength (mol/kgw)  =   1.463e-03
                       Mass of water (kg)  =   1.000e+00
                 Total alkalinity (eq/kg)  =   9.867e-04
                       Total CO2 (mol/kg)  =   9.803e-04
                         Temperature (°C)  =  25.00
                  Electrical balance (eq)  =  -7.220e-12
 Percent error, 100*(Cat-|An|)/(Cat+|An|)  =  -0.00
                               Iterations  =  10
                                  Total H  = 1.110134e+02
                                  Total O  = 5.550940e+01

----------------------------Distribution of species----------------------------

                                               Log       Log       Log    mole V
   Species          Molality    Activity  Molality  Activity     Gamma   cm³/mol

   OH-             2.010e-06   1.925e-06    -5.697    -5.716    -0.019     -4.10
   H+              5.474e-09   5.257e-09    -8.262    -8.279    -0.018      0.00
   H2O             5.551e+01   1.000e+00     1.744    -0.000     0.000     18.07
C(-4)         0.000e+00
   CH4             0.000e+00   0.000e+00  -144.953  -144.953     0.000     35.46
C(4)          9.803e-04
   HCO3-           9.494e-04   9.103e-04    -3.023    -3.041    -0.018     24.69
   CO2             1.076e-05   1.076e-05    -4.968    -4.968     0.000     34.43
   CO3-2           9.608e-06   8.120e-06    -5.017    -5.090    -0.073     -5.25
   CaCO3           5.563e-06   5.565e-06    -5.255    -5.255     0.000    -14.60
   CaHCO3+         4.940e-06   4.738e-06    -5.306    -5.324    -0.018      9.68
   (CO2)2          2.125e-12   2.125e-12   -11.673   -11.673     0.000     68.87
   NaHCO3          9.863e-13   9.866e-13   -12.006   -12.006     0.000      1.80
   ZnCO3           6.181e-13   6.183e-13   -12.209   -12.209     0.000     (0)  
   NaCO3-          3.041e-13   2.914e-13   -12.517   -12.535    -0.019     -1.02
   Zn(CO3)2-2      1.274e-13   1.073e-13   -12.895   -12.969    -0.074     (0)  
   ZnHCO3+         4.565e-14   4.374e-14   -13.341   -13.359    -0.019     (0)  
Ca            4.934e-04
   Ca+2            4.828e-04   4.080e-04    -3.316    -3.389    -0.073    -18.12
   CaCO3           5.563e-06   5.565e-06    -5.255    -5.255     0.000    -14.60
   CaHCO3+         4.940e-06   4.738e-06    -5.306    -5.324    -0.018      9.68
   CaOH+           1.344e-08   1.288e-08    -7.872    -7.890    -0.019     (0)  
Cl            2.012e-09
   Cl-             2.012e-09   1.928e-09    -8.696    -8.715    -0.019     18.08
   ZnOHCl          4.632e-21   4.634e-21   -20.334   -20.334     0.000     (0)  
   ZnCl+           2.067e-21   1.980e-21   -20.685   -20.703    -0.019    -13.90
   ZnCl2           3.996e-30   3.997e-30   -29.398   -29.398     0.000    102.03
   ZnCl3-          9.023e-39   8.645e-39   -38.045   -38.063    -0.019     16.98
   ZnCl4-2         0.000e+00   0.000e+00   -47.005   -47.078    -0.073    145.19
H(0)          0.000e+00
   H2              0.000e+00   0.000e+00   -44.244   -44.244     0.000     28.61
Na            2.012e-09
   Na+             2.011e-09   1.927e-09    -8.697    -8.715    -0.018     -1.47
   NaHCO3          9.863e-13   9.866e-13   -12.006   -12.006     0.000      1.80
   NaCO3-          3.041e-13   2.914e-13   -12.517   -12.535    -0.019     -1.02
   NaOH            3.709e-25   3.710e-25   -24.431   -24.431     0.000     (0)  
O(0)          2.561e-04
   O2              1.281e-04   1.281e-04    -3.893    -3.892     0.000     30.40
Zn            1.500e-12
   ZnCO3           6.181e-13   6.183e-13   -12.209   -12.209     0.000     (0)  
   Zn+2            4.519e-13   3.816e-13   -12.345   -12.418    -0.073    -25.34
   Zn(OH)2         1.738e-13   1.738e-13   -12.760   -12.760     0.000     (0)  
   Zn(CO3)2-2      1.274e-13   1.073e-13   -12.895   -12.969    -0.074     (0)  
   ZnOH+           8.307e-14   7.959e-14   -13.081   -13.099    -0.019     (0)  
   ZnHCO3+         4.565e-14   4.374e-14   -13.341   -13.359    -0.019     (0)  
   Zn(OH)3-        1.091e-16   1.045e-16   -15.962   -15.981    -0.019     (0)  
   ZnOHCl          4.632e-21   4.634e-21   -20.334   -20.334     0.000     (0)  
   Zn(OH)4-2       3.739e-21   3.151e-21   -20.427   -20.501    -0.074     (0)  
   ZnCl+           2.067e-21   1.980e-21   -20.685   -20.703    -0.019    -13.90
   ZnCl2           3.996e-30   3.997e-30   -29.398   -29.398     0.000    102.03
   ZnCl3-          9.023e-39   8.645e-39   -38.045   -38.063    -0.019     16.98
   ZnCl4-2         0.000e+00   0.000e+00   -47.005   -47.078    -0.073    145.19

------------------------------Saturation indices-------------------------------

  Phase               SI** log IAP   log K(298 K,   1 atm)

  Aragonite        -0.14     -8.48   -8.34  CaCO3
  Calcite          -0.00     -8.48   -8.48  CaCO3
  CH4(g)         -142.15   -144.95   -2.80  CH4
  CO2(g)           -3.50     -4.97   -1.47  CO2
  H2(g)           -41.14    -44.24   -3.10  H2
  H2O(g)           -1.50     -0.00    1.50  H2O
  Halite          -19.00    -17.43    1.57  NaCl
  O2(g)            -1.00     -3.89   -2.89  O2
  Smithsonite      -7.51    -17.51  -10.00  ZnCO3
  Zn(OH)2(e)       -7.36      4.14   11.50  Zn(OH)2

**For a gas, SI = log10(fugacity). Fugacity = pressure * phi / 1 atm.
  For ideal gases, phi = 1.

Using solution 5.	
Using pure phase assemblage 5.	
Using solid solution assemblage 5.	

-------------------------------Phase assemblage--------------------------------

                                                      Moles in assemblage
Phase               SI  log IAP  log K(T, P)   Initial       Final       Delta

Halite          -19.00   -17.43      1.57    1.000e+01   1.000e+01  -2.012e-09

--------------------------------Solid solutions--------------------------------


Solid solution                Component        Moles  Delta moles   Mole fract

CaZnCO3                                     0.00e+00
                                Calcite     0.00e+00     5.25e-15     0.00e+00
                            Smithsonite     0.00e+00     2.19e-23     0.00e+00

-----------------------------Solution composition------------------------------

	Elements           Molality       Moles

	C                 9.803e-04   9.803e-04
	Ca                4.934e-04   4.934e-04
	Cl                2.012e-09   2.012e-09
	Na                2.012e-09   2.012e-09
	Zn                1.500e-12   1.500e-12

----------------------------Description of solution----------------------------

                                       pH  =   8.279      Charge balance
                                       pe  =  12.268      Adjusted to redox equilibrium
      Specific Conductance (µS/cm,  25°C)  = 96
                          Density (g/cm³)  =   0.99711
                               Volume (L)  =   1.00298
                        Activity of water  =   1.000
                 Ionic strength (mol/kgw)  =   1.463e-03
                       Mass of water (kg)  =   1.000e+00
                 Total alkalinity (eq/kg)  =   9.867e-04
                       Total CO2 (mol/kg)  =   9.803e-04
                         Temperature (°C)  =  25.00
                  Electrical balance (eq)  =  -7.220e-12
 Percent error, 100*(Cat-|An|)/(Cat+|An|)  =  -0.00
                               Iterations  =  10
                                  Total H  = 1.110134e+02
                                  Total O  = 5.550940e+01

----------------------------Distribution of species----------------------------

                                               Log       Log       Log    mole V
   Species          Molality    Activity  Molality  Activity     Gamma   cm³/mol

   OH-             2.010e-06   1.925e-06    -5.697    -5.716    -0.019     -4.10
   H+              5.474e-09   5.257e-09    -8.262    -8.279    -0.018      0.00
   H2O             5.551e+01   1.000e+00     1.744    -0.000     0.000     18.07
C(-4)         0.000e+00
   CH4             0.000e+00   0.000e+00  -144.953  -144.953     0.000     35.46
C(4)          9.803e-04
   HCO3-           9.494e-04   9.103e-04    -3.023    -3.041    -0.018     24.69
   CO2             1.076e-05   1.076e-05    -4.968    -4.968     0.000     34.43
   CO3-2           9.608e-06   8.120e-06    -5.017    -5.090    -0.073     -5.25
   CaCO3           5.563e-06   5.565e-06    -5.255    -5.255     0.000    -14.60
   CaHCO3+         4.940e-06   4.738e-06    -5.306    -5.324    -0.018      9.68
   (CO2)2          2.125e-12   2.125e-12   -11.673   -11.673     0.000     68.87
   NaHCO3          9.863e-13   9.866e-13   -12.006   -12.006     0.000      1.80
   ZnCO3           6.181e-13   6.183e-13   -12.209   -12.209     0.000     (0)  
   NaCO3-          3.041e-13   2.914e-13   -12.517   -12.535    -0.019     -1.02
   Zn(CO3)2-2      1.274e-13   1.073e-13   -12.895   -12.969    -0.074     (0)  
   ZnHCO3+         4.565e-14   4.374e-14   -13.341   -13.359    -0.019     (0)  
Ca            4.934e-04
   Ca+2            4.828e-04   4.080e-04    -3.316    -3.389    -0.073    -18.12
   CaCO3           5.563e-06   5.565e-06    -5.255    -5.255     0.000    -14.60
   CaHCO3+         4.940e-06   4.738e-06    -5.306    -5.324    -0.018      9.68
   CaOH+           1.344e-08   1.288e-08    -7.872    -7.890    -0.019     (0)  
Cl            2.012e-09
   Cl-             2.012e-09   1.928e-09    -8.696    -8.715    -0.019     18.08
   ZnOHCl          4.632e-21   4.634e-21   -20.334   -20.334     0.000     (0)  
   ZnCl+           2.067e-21   1.980e-21   -20.685   -20.703    -0.019    -13.90
   ZnCl2           3.996e-30   3.997e-30   -29.398   -29.398     0.000    102.03
   ZnCl3-          9.023e-39   8.645e-39   -38.045   -38.063    -0.019     16.98
   ZnCl4-2         0.000e+00   0.000e+00   -47.005   -47.078    -0.073    145.19
H(0)          0.000e+00
   H2              0.000e+00   0.000e+00   -44.244   -44.244     0.000     28.61
Na            2.012e-09
   Na+             2.011e-09   1.927e-09    -8.697    -8.715    -0.018     -1.47
   NaHCO3          9.863e-13   9.866e-13   -12.006   -12.006     0.000      1.80
   NaCO3-          3.041e-13   2.914e-13   -12.517   -12.535    -0.019     -1.02
   NaOH            3.709e-25   3.710e-25   -24.431   -24.431     0.000     (0)  
O(0)          2.561e-04
   O2              1.281e-04   1.281e-04    -3.893    -3.892     0.000     30.40
Zn            1.500e-12
   ZnCO3           6.181e-13   6.183e-13   -12.209   -12.209     0.000     (0)  
   Zn+2            4.519e-13   3.816e-13   -12.345   -12.418    -0.073    -25.34
   Zn(OH)2         1.738e-13   1.738e-13   -12.760   -12.760     0.000     (0)  
   Zn(CO3)2-2      1.274e-13   1.073e-13   -12.895   -12.969    -0.074     (0)  
   ZnOH+           8.307e-14   7.959e-14   -13.081   -13.099    -0.019     (0)  
   ZnHCO3+         4.565e-14   4.374e-14   -13.341   -13.359    -0.019     (0)  
   Zn(OH)3-        1.091e-16   1.045e-16   -15.962   -15.981    -0.019     (0)  
   ZnOHCl          4.632e-21   4.634e-21   -20.334   -20.334     0.000     (0)  
   Zn(OH)4-2       3.739e-21   3.151e-21   -20.427   -20.501    -0.074     (0)  
   ZnCl+           2.067e-21   1.980e-21   -20.685   -20.703    -0.019    -13.90
   ZnCl2           3.996e-30   3.997e-30   -29.398   -29.398     0.000    102.03
   ZnCl3-          9.023e-39   8.645e-39   -38.045   -38.063    -0.019     16.98
   ZnCl4-2         0.000e+00   0.000e+00   -47.005   -47.078    -0.073    145.19

------------------------------Saturation indices-------------------------------

  Phase               SI** log IAP   log K(298 K,   1 atm)

  Aragonite        -0.14     -8.48   -8.34  CaCO3
  Calcite          -0.00     -8.48   -8.48  CaCO3
  CH4(g)         -142.15   -144.95   -2.80  CH4
  CO2(g)           -3.50     -4.97   -1.47  CO2
  H2(g)           -41.14    -44.24   -3.10  H2
  H2O(g)           -1.50     -0.00    1.50  H2O
  Halite          -19.00    -17.43    1.57  NaCl
  O2(g)            -1.00     -3.89   -2.89  O2
  Smithsonite      -7.51    -17.51  -10.00  ZnCO3
  Zn(OH)2(e)       -7.36      4.14   11.50  Zn(OH)2

**For a gas, SI = log10(fugacity). Fugacity = pressure * phi / 1 atm.
  For ideal gases, phi = 1.

Using solution 6.	
Using pure phase assemblage 6.	
Using solid solution assemblage 6.	

-------------------------------Phase assemblage--------------------------------

                                                      Moles in assemblage
Phase               SI  log IAP  log K(T, P)   Initial       Final       Delta

Halite          -19.00   -17.43      1.57    1.000e+01   1.000e+01  -2.012e-09

--------------------------------Solid solutions--------------------------------


Solid solution                Component        Moles  Delta moles   Mole fract

CaZnCO3                                     0.00e+00
                                Calcite     0.00e+00     5.25e-15     0.00e+00
                            Smithsonite     0.00e+00     2.19e-23     0.00e+00

-----------------------------Solution composition------------------------------

	Elements           Molality       Moles

	C                 9.803e-04   9.803e-04
	Ca                4.934e-04   4.934e-04
	Cl                2.012e-09   2.012e-09
	Na                2.012e-09   2.012e-09
	Zn                1.500e-12   1.500e-12

----------------------------Description of solution----------------------------

                                       pH  =   8.279      Charge balance
                                       pe  =  12.268      Adjusted to redox equilibrium
      Specific Conductance (µS/cm,  25°C)  = 96
                          Density (g/cm³)  =   0.99711
                               Volume (L)  =   1.00298
                        Activity of water  =   1.000
                 Ionic strength (mol/kgw)  =   1.463e-03
                       Mass of water (kg)  =   1.000e+00
                 Total alkalinity (eq/kg)  =   9.867e-04
                       Total CO2 (mol/kg)  =   9.803e-04
                         Temperature (°C)  =  25.00
                  Electrical balance (eq)  =  -7.220e-12
 Percent error, 100*(Cat-|An|)/(Cat+|An|)  =  -0.00
                               Iterations  =  10
                                  Total H  = 1.110134e+02
                                  Total O  = 5.550940e+01

----------------------------Distribution of species----------------------------

                                               Log       Log       Log    mole V
   Species          Molality    Activity  Molality  Activity     Gamma   cm³/mol

   OH-             2.010e-06   1.925e-06    -5.697    -5.716    -0.019     -4.10
   H+              5.474e-09   5.257e-09    -8.262    -8.279    -0.018      0.00
   H2O             5.551e+01   1.000e+00     1.744    -0.000     0.000     18.07
C(-4)         0.000e+00
   CH4             0.000e+00   0.000e+00  -144.953  -144.953     0.000     35.46
C(4)          9.803e-04
   HCO3-           9.494e-04   9.103e-04    -3.023    -3.041    -0.018     24.69
   CO2             1.076e-05   1.076e-05    -4.968    -4.968     0.000     34.43
   CO3-2           9.608e-06   8.120e-06    -5.017    -5.090    -0.073     -5.25
   CaCO3           5.563e-06   5.565e-06    -5.255    -5.255     0.000    -14.60
   CaHCO3+         4.940e-06   4.738e-06    -5.306    -5.324    -0.018      9.68
   (CO2)2          2.125e-12   2.125e-12   -11.673   -11.673     0.000     68.87
   NaHCO3          9.863e-13   9.866e-13   -12.006   -12.006     0.000      1.80
   ZnCO3           6.181e-13   6.183e-13   -12.209   -12.209     0.000     (0)  
   NaCO3-          3.041e-13   2.914e-13   -12.517   -12.535    -0.019     -1.02
   Zn(CO3)2-2      1.274e-13   1.073e-13   -12.895   -12.969    -0.074     (0)  
   ZnHCO3+         4.565e-14   4.374e-14   -13.341   -13.359    -0.019     (0)  
Ca            4.934e-04
   Ca+2            4.828e-04   4.080e-04    -3.316    -3.389    -0.073    -18.12
   CaCO3           5.563e-06   5.565e-06    -5.255    -5.255     0.000    -14.60
   CaHCO3+         4.940e-06   4.738e-06    -5.306    -5.324    -0.018      9.68
   CaOH+           1.344e-08   1.288e-08    -7.872    -7.890    -0.019     (0)  
Cl            2.012e-09
   Cl-             2.012e-09   1.928e-09    -8.696    -8.715    -0.019     18.08
   ZnOHCl          4.632e-21   4.634e-21   -20.334   -20.334     0.000     (0)  
   ZnCl+           2.067e-21   1.980e-21   -20.685   -20.703    -0.019    -13.90
   ZnCl2           3.996e-30   3.997e-30   -29.398   -29.398     0.000    102.03
   ZnCl3-          9.023e-39   8.645e-39   -38.045   -38.063    -0.019     16.98
   ZnCl4-2         0.000e+00   0.000e+00   -47.005   -47.078    -0.073    145.19
H(0)          0.000e+00
   H2              0.000e+00   0.000e+00   -44.244   -44.244     0.000     28.61
Na            2.012e-09
   Na+             2.011e-09   1.927e-09    -8.697    -8.715    -0.018     -1.47
   NaHCO3          9.863e-13   9.866e-13   -12.006   -12.006     0.000      1.80
   NaCO3-          3.041e-13   2.914e-13   -12.517   -12.535    -0.019     -1.02
   NaOH            3.709e-25   3.710e-25   -24.431   -24.431     0.000     (0)  
O(0)          2.561e-04
   O2              1.281e-04   1.281e-04    -3.893    -3.892     0.000     30.40
Zn            1.500e-12
   ZnCO3           6.181e-13   6.183e-13   -12.209   -12.209     0.000     (0)  
   Zn+2            4.519e-13   3.816e-13   -12.345   -12.418    -0.073    -25.34
   Zn(OH)2         1.738e-13   1.738e-13   -12.760   -12.760     0.000     (0)  
   Zn(CO3)2-2      1.274e-13   1.073e-13   -12.895   -12.969    -0.074     (0)  
   ZnOH+           8.307e-14   7.959e-14   -13.081   -13.099    -0.019     (0)  
   ZnHCO3+         4.565e-14   4.374e-14   -13.341   -13.359    -0.019     (0)  
   Zn(OH)3-        1.091e-16   1.045e-16   -15.962   -15.981    -0.019     (0)  
   ZnOHCl          4.632e-21   4.634e-21   -20.334   -20.334     0.000     (0)  
   Zn(OH)4-2       3.739e-21   3.151e-21   -20.427   -20.501    -0.074     (0)  
   ZnCl+           2.067e-21   1.980e-21   -20.685   -20.703    -0.019    -13.90
   ZnCl2           3.996e-30   3.997e-30   -29.398   -29.398     0.000    102.03
   ZnCl3-          9.023e-39   8.645e-39   -38.045   -38.063    -0.019     16.98
   ZnCl4-2         0.000e+00   0.000e+00   -47.005   -47.078    -0.073    145.19

------------------------------Saturation indices-------------------------------

  Phase               SI** log IAP   log K(298 K,   1 atm)

  Aragonite        -0.14     -8.48   -8.34  CaCO3
  Calcite          -0.00     -8.48   -8.48  CaCO3
  CH4(g)         -142.15   -144.95   -2.80  CH4
  CO2(g)           -3.50     -4.97   -1.47  CO2
  H2(g)           -41.14    -44.24   -3.10  H2
  H2O(g)           -1.50     -0.00    1.50  H2O
  Halite          -19.00    -17.43    1.57  NaCl
  O2(g)            -1.00     -3.89   -2.89  O2
  Smithsonite      -7.51    -17.51  -10.00  ZnCO3
  Zn(OH)2(e)       -7.36      4.14   11.50  Zn(OH)2

**For a gas, SI = log10(fugacity). Fugacity = pressure * phi / 1 atm.
  For ideal gases, phi = 1.

Using solution 7.	
Using pure phase assemblage 7.	
Using solid solution assemblage 7.	

-------------------------------Phase assemblage--------------------------------

                                                      Moles in assemblage
Phase               SI  log IAP  log K(T, P)   Initial       Final       Delta

Halite          -19.00   -17.43      1.57    1.000e+01   1.000e+01  -2.012e-09

--------------------------------Solid solutions--------------------------------


Solid solution                Component        Moles  Delta moles   Mole fract

CaZnCO3                                     0.00e+00
                                Calcite     0.00e+00     5.25e-15     0.00e+00
                            Smithsonite     0.00e+00     2.19e-23     0.00e+00

-----------------------------Solution composition------------------------------

	Elements           Molality       Moles

	C                 9.803e-04   9.803e-04
	Ca                4.934e-04   4.934e-04
	Cl                2.012e-09   2.012e-09
	Na                2.012e-09   2.012e-09
	Zn                1.500e-12   1.500e-12

----------------------------Description of solution----------------------------

                                       pH  =   8.279      Charge balance
                                       pe  =  12.268      Adjusted to redox equilibrium
      Specific Conductance (µS/cm,  25°C)  = 96
                          Density (g/cm³)  =   0.99711
                               Volume (L)  =   1.00298
                        Activity of water  =   1.000
                 Ionic strength (mol/kgw)  =   1.463e-03
                       Mass of water (kg)  =   1.000e+00
                 Total alkalinity (eq/kg)  =   9.867e-04
                       Total CO2 (mol/kg)  =   9.803e-04
                         Temperature (°C)  =  25.00
                  Electrical balance (eq)  =  -7.220e-12
 Percent error, 100*(Cat-|An|)/(Cat+|An|)  =  -0.00
                               Iterations  =  10
                                  Total H  = 1.110134e+02
                                  Total O  = 5.550940e+01

----------------------------Distribution of species----------------------------

                                               Log       Log       Log    mole V
   Species          Molality    Activity  Molality  Activity     Gamma   cm³/mol

   OH-             2.010e-06   1.925e-06    -5.697    -5.716    -0.019     -4.10
   H+              5.474e-09   5.257e-09    -8.262    -8.279    -0.018      0.00
   H2O             5.551e+01   1.000e+00     1.744    -0.000     0.000     18.07
C(-4)         0.000e+00
   CH4             0.000e+00   0.000e+00  -144.953  -144.953     0.000     35.46
C(4)          9.803e-04
   HCO3-           9.494e-04   9.103e-04    -3.023    -3.041    -0.018     24.69
   CO2             1.076e-05   1.076e-05    -4.968    -4.968     0.000     34.43
   CO3-2           9.608e-06   8.120e-06    -5.017    -5.090    -0.073     -5.25
   CaCO3           5.563e-06   5.565e-06    -5.255    -5.255     0.000    -14.60
   CaHCO3+         4.940e-06   4.738e-06    -5.306    -5.324    -0.018      9.68
   (CO2)2          2.125e-12   2.125e-12   -11.673   -11.673     0.000     68.87
   NaHCO3          9.863e-13   9.866e-13   -12.006   -12.006     0.000      1.80
   ZnCO3           6.181e-13   6.183e-13   -12.209   -12.209     0.000     (0)  
   NaCO3-          3.041e-13   2.914e-13   -12.517   -12.535    -0.019     -1.02
   Zn(CO3)2-2      1.274e-13   1.073e-13   -12.895   -12.969    -0.074     (0)  
   ZnHCO3+         4.565e-14   4.374e-14   -13.341   -13.359    -0.019     (0)  
Ca            4.934e-04
   Ca+2            4.828e-04   4.080e-04    -3.316    -3.389    -0.073    -18.12
   CaCO3           5.563e-06   5.565e-06    -5.255    -5.255     0.000    -14.60
   CaHCO3+         4.940e-06   4.738e-06    -5.306    -5.324    -0.018      9.68
   CaOH+           1.344e-08   1.288e-08    -7.872    -7.890    -0.019     (0)  
Cl            2.012e-09
   Cl-             2.012e-09   1.928e-09    -8.696    -8.715    -0.019     18.08
   ZnOHCl          4.632e-21   4.634e-21   -20.334   -20.334     0.000     (0)  
   ZnCl+           2.067e-21   1.980e-21   -20.685   -20.703    -0.019    -13.90
   ZnCl2           3.996e-30   3.997e-30   -29.398   -29.398     0.000    102.03
   ZnCl3-          9.023e-39   8.645e-39   -38.045   -38.063    -0.019     16.98
   ZnCl4-2         0.000e+00   0.000e+00   -47.005   -47.078    -0.073    145.19
H(0)          0.000e+00
   H2              0.000e+00   0.000e+00   -44.244   -44.244     0.000     28.61
Na            2.012e-09
   Na+             2.011e-09   1.927e-09    -8.697    -8.715    -0.018     -1.47
   NaHCO3          9.863e-13   9.866e-13   -12.006   -12.006     0.000      1.80
   NaCO3-          3.041e-13   2.914e-13   -12.517   -12.535    -0.019     -1.02
   NaOH            3.709e-25   3.710e-25   -24.431   -24.431     0.000     (0)  
O(0)          2.561e-04
   O2              1.281e-04   1.281e-04    -3.893    -3.892     0.000     30.40
Zn            1.500e-12
   ZnCO3           6.181e-13   6.183e-13   -12.209   -12.209     0.000     (0)  
   Zn+2            4.519e-13   3.816e-13   -12.345   -12.418    -0.073    -25.34
   Zn(OH)2         1.738e-13   1.738e-13   -12.760   -12.760     0.000     (0)  
   Zn(CO3)2-2      1.274e-13   1.073e-13   -12.895   -12.969    -0.074     (0)  
   ZnOH+           8.307e-14   7.959e-14   -13.081   -13.099    -0.019     (0)  
   ZnHCO3+         4.565e-14   4.374e-14   -13.341   -13.359    -0.019     (0)  
   Zn(OH)3-        1.091e-16   1.045e-16   -15.962   -15.981    -0.019     (0)  
   ZnOHCl          4.632e-21   4.634e-21   -20.334   -20.334     0.000     (0)  
   Zn(OH)4-2       3.739e-21   3.151e-21   -20.427   -20.501    -0.074     (0)  
   ZnCl+           2.067e-21   1.980e-21   -20.685   -20.703    -0.019    -13.90
   ZnCl2           3.996e-30   3.997e-30   -29.398   -29.398     0.000    102.03
   ZnCl3-          9.023e-39   8.645e-39   -38.045   -38.063    -0.019     16.98
   ZnCl4-2         0.000e+00   0.000e+00   -47.005   -47.078    -0.073    145.19

------------------------------Saturation indices-------------------------------

  Phase               SI** log IAP   log K(298 K,   1 atm)

  Aragonite        -0.14     -8.48   -8.34  CaCO3
  Calcite          -0.00     -8.48   -8.48  CaCO3
  CH4(g)         -142.15   -144.95   -2.80  CH4
  CO2(g)           -3.50     -4.97   -1.47  CO2
  H2(g)           -41.14    -44.24   -3.10  H2
  H2O(g)           -1.50     -0.00    1.50  H2O
  Halite          -19.00    -17.43    1.57  NaCl
  O2(g)            -1.00     -3.89   -2.89  O2
  Smithsonite      -7.51    -17.51  -10.00  ZnCO3
  Zn(OH)2(e)       -7.36      4.14   11.50  Zn(OH)2

**For a gas, SI = log10(fugacity). Fugacity = pressure * phi / 1 atm.
  For ideal gases, phi = 1.

Using solution 8.	
Using pure phase assemblage 8.	
Using solid solution assemblage 8.	

-------------------------------Phase assemblage--------------------------------

                                                      Moles in assemblage
Phase               SI  log IAP  log K(T, P)   Initial       Final       Delta

Halite          -19.00   -17.43      1.57    1.000e+01   1.000e+01  -2.012e-09

--------------------------------Solid solutions--------------------------------


Solid solution                Component        Moles  Delta moles   Mole fract

CaZnCO3                                     0.00e+00
                                Calcite     0.00e+00     5.25e-15     0.00e+00
                            Smithsonite     0.00e+00     2.19e-23     0.00e+00

-----------------------------Solution composition------------------------------

	Elements           Molality       Moles

	C                 9.803e-04   9.803e-04
	Ca                4.934e-04   4.934e-04
	Cl                2.012e-09   2.012e-09
	Na                2.012e-09   2.012e-09
	Zn                1.500e-12   1.500e-12

----------------------------Description of solution----------------------------

                                       pH  =   8.279      Charge balance
                                       pe  =  12.268      Adjusted to redox equilibrium
      Specific Conductance (µS/cm,  25°C)  = 96
                          Density (g/cm³)  =   0.99711
                               Volume (L)  =   1.00298
                        Activity of water  =   1.000
                 Ionic strength (mol/kgw)  =   1.463e-03
                       Mass of water (kg)  =   1.000e+00
                 Total alkalinity (eq/kg)  =   9.867e-04
                       Total CO2 (mol/kg)  =   9.803e-04
                         Temperature (°C)  =  25.00
                  Electrical balance (eq)  =  -7.220e-12
 Percent error, 100*(Cat-|An|)/(Cat+|An|)  =  -0.00
                               Iterations  =  10
                                  Total H  = 1.110134e+02
                                  Total O  = 5.550940e+01

----------------------------Distribution of species----------------------------

                                               Log       Log       Log    mole V
   Species          Molality    Activity  Molality  Activity     Gamma   cm³/mol

   OH-             2.010e-06   1.925e-06    -5.697    -5.716    -0.019     -4.10
   H+              5.474e-09   5.257e-09    -8.262    -8.279    -0.018      0.00
   H2O             5.551e+01   1.000e+00     1.744    -0.000     0.000     18.07
C(-4)         0.000e+00
   CH4             0.000e+00   0.000e+00  -144.953  -144.953     0.000     35.46
C(4)          9.803e-04
   HCO3-           9.494e-04   9.103e-04    -3.023    -3.041    -0.018     24.69
   CO2             1.076e-05   1.076e-05    -4.968    -4.968     0.000     34.43
   CO3-2           9.608e-06   8.120e-06    -5.017    -5.090    -0.073     -5.25
   CaCO3           5.563e-06   5.565e-06    -5.255    -5.255     0.000    -14.60
   CaHCO3+         4.940e-06   4.738e-06    -5.306    -5.324    -0.018      9.68
   (CO2)2          2.125e-12   2.125e-12   -11.673   -11.673     0.000     68.87
   NaHCO3          9.863e-13   9.866e-13   -12.006   -12.006     0.000      1.80
   ZnCO3           6.181e-13   6.183e-13   -12.209   -12.209     0.000     (0)  
   NaCO3-          3.041e-13   2.914e-13   -12.517   -12.535    -0.019     -1.02
   Zn(CO3)2-2      1.274e-13   1.073e-13   -12.895   -12.969    -0.074     (0)  
   ZnHCO3+         4.565e-14   4.374e-14   -13.341   -13.359    -0.019     (0)  
Ca            4.934e-04
   Ca+2            4.828e-04   4.080e-04    -3.316    -3.389    -0.073    -18.12
   CaCO3           5.563e-06   5.565e-06    -5.255    -5.255     0.000    -14.60
   CaHCO3+         4.940e-06   4.738e-06    -5.306    -5.324    -0.018      9.68
   CaOH+           1.344e-08   1.288e-08    -7.872    -7.890    -0.019     (0)  
Cl            2.012e-09
   Cl-             2.012e-09   1.928e-09    -8.696    -8.715    -0.019     18.08
   ZnOHCl          4.632e-21   4.634e-21   -20.334   -20.334     0.000     (0)  
   ZnCl+           2.067e-21   1.980e-21   -20.685   -20.703    -0.019    -13.90
   ZnCl2           3.996e-30   3.997e-30   -29.398   -29.398     0.000    102.03
   ZnCl3-          9.023e-39   8.645e-39   -38.045   -38.063    -0.019     16.98
   ZnCl4-2         0.000e+00   0.000e+00   -47.005   -47.078    -0.073    145.19
H(0)          0.000e+00
   H2              0.000e+00   0.000e+00   -44.244   -44.244     0.000     28.61
Na            2.012e-09
   Na+             2.011e-09   1.927e-09    -8.697    -8.715    -0.018     -1.47
   NaHCO3          9.863e-13   9.866e-13   -12.006   -12.006     0.000      1.80
   NaCO3-          3.041e-13   2.914e-13   -12.517   -12.535    -0.019     -1.02
   NaOH            3.709e-25   3.710e-25   -24.431   -24.431     0.000     (0)  
O(0)          2.561e-04
   O2              1.281e-04   1.281e-04    -3.893    -3.892     0.000     30.40
Zn            1.500e-12
   ZnCO3           6.181e-13   6.183e-13   -12.209   -12.209     0.000     (0)  
   Zn+2            4.519e-13   3.816e-13   -12.345   -12.418    -0.073    -25.34
   Zn(OH)2         1.738e-13   1.738e-13   -12.760   -12.760     0.000     (0)  
   Zn(CO3)2-2      1.274e-13   1.073e-13   -12.895   -12.969    -0.074     (0)  
   ZnOH+           8.307e-14   7.959e-14   -13.081   -13.099    -0.019     (0)  
   ZnHCO3+         4.565e-14   4.374e-14   -13.341   -13.359    -0.019     (0)  
   Zn(OH)3-        1.091e-16   1.045e-16   -15.962   -15.981    -0.019     (0)  
   ZnOHCl          4.632e-21   4.634e-21   -20.334   -20.334     0.000     (0)  
   Zn(OH)4-2       3.739e-21   3.151e-21   -20.427   -20.501    -0.074     (0)  
   ZnCl+           2.067e-21   1.980e-21   -20.685   -20.703    -0.019    -13.90
   ZnCl2           3.996e-30   3.997e-30   -29.398   -29.398     0.000    102.03
   ZnCl3-          9.023e-39   8.645e-39   -38.045   -38.063    -0.019     16.98
   ZnCl4-2         0.000e+00   0.000e+00   -47.005   -47.078    -0.073    145.19

------------------------------Saturation indices-------------------------------

  Phase               SI** log IAP   log K(298 K,   1 atm)

  Aragonite        -0.14     -8.48   -8.34  CaCO3
  Calcite          -0.00     -8.48   -8.48  CaCO3
  CH4(g)         -142.15   -144.95   -2.80  CH4
  CO2(g)           -3.50     -4.97   -1.47  CO2
  H2(g)           -41.14    -44.24   -3.10  H2
  H2O(g)           -1.50     -0.00    1.50  H2O
  Halite          -19.00    -17.43    1.57  NaCl
  O2(g)            -1.00     -3.89   -2.89  O2
  Smithsonite      -7.51    -17.51  -10.00  ZnCO3
  Zn(OH)2(e)       -7.36      4.14   11.50  Zn(OH)2

**For a gas, SI = log10(fugacity). Fugacity = pressure * phi / 1 atm.
  For ideal gases, phi = 1.

Using solution 9.	
Using pure phase assemblage 9.	
Using solid solution assemblage 9.	

-------------------------------Phase assemblage--------------------------------

                                                      Moles in assemblage
Phase               SI  log IAP  log K(T, P)   Initial       Final       Delta

Halite          -19.00   -17.43      1.57    1.000e+01   1.000e+01  -2.012e-09

--------------------------------Solid solutions--------------------------------


Solid solution                Component        Moles  Delta moles   Mole fract

CaZnCO3                                     0.00e+00
                                Calcite     0.00e+00     5.25e-15     0.00e+00
                            Smithsonite     0.00e+00     2.19e-23     0.00e+00

-----------------------------Solution composition------------------------------

	Elements           Molality       Moles

	C                 9.803e-04   9.803e-04
	Ca                4.934e-04   4.934e-04
	Cl                2.012e-09   2.012e-09
	Na                2.012e-09   2.012e-09
	Zn                1.500e-12   1.500e-12

----------------------------Description of solution----------------------------

                                       pH  =   8.279      Charge balance
                                       pe  =  12.268      Adjusted to redox equilibrium
      Specific Conductance (µS/cm,  25°C)  = 96
                          Density (g/cm³)  =   0.99711
                               Volume (L)  =   1.00298
                        Activity of water  =   1.000
                 Ionic strength (mol/kgw)  =   1.463e-03
                       Mass of water (kg)  =   1.000e+00
                 Total alkalinity (eq/kg)  =   9.867e-04
                       Total CO2 (mol/kg)  =   9.803e-04
                         Temperature (°C)  =  25.00
                  Electrical balance (eq)  =  -7.220e-12
 Percent error, 100*(Cat-|An|)/(Cat+|An|)  =  -0.00
                               Iterations  =  10
                                  Total H  = 1.110134e+02
                                  Total O  = 5.550940e+01

----------------------------Distribution of species----------------------------

                                               Log       Log       Log    mole V
   Species          Molality    Activity  Molality  Activity     Gamma   cm³/mol

   OH-             2.010e-06   1.925e-06    -5.697    -5.716    -0.019     -4.10
   H+              5.474e-09   5.257e-09    -8.262    -8.279    -0.018      0.00
   H2O             5.551e+01   1.000e+00     1.744    -0.000     0.000     18.07
C(-4)         0.000e+00
   CH4             0.000e+00   0.000e+00  -144.953  -144.953     0.000     35.46
C(4)          9.803e-04
   HCO3-           9.494e-04   9.103e-04    -3.023    -3.041    -0.018     24.69
   CO2             1.076e-05   1.076e-05    -4.968    -4.968     0.000     34.43
   CO3-2           9.608e-06   8.120e-06    -5.017    -5.090    -0.073     -5.25
   CaCO3           5.563e-06   5.565e-06    -5.255    -5.255     0.000    -14.60
   CaHCO3+         4.940e-06   4.738e-06    -5.306    -5.324    -0.018      9.68
   (CO2)2          2.125e-12   2.125e-12   -11.673   -11.673     0.000     68.87
   NaHCO3          9.863e-13   9.866e-13   -12.006   -12.006     0.000      1.80
   ZnCO3           6.181e-13   6.183e-13   -12.209   -12.209     0.000     (0)  
   NaCO3-          3.041e-13   2.914e-13   -12.517   -12.535    -0.019     -1.02
   Zn(CO3)2-2      1.274e-13   1.073e-13   -12.895   -12.969    -0.074     (0)  
   ZnHCO3+         4.565e-14   4.374e-14   -13.341   -13.359    -0.019     (0)  
Ca            4.934e-04
   Ca+2            4.828e-04   4.080e-04    -3.316    -3.389    -0.073    -18.12
   CaCO3           5.563e-06   5.565e-06    -5.255    -5.255     0.000    -14.60
   CaHCO3+         4.940e-06   4.738e-06    -5.306    -5.324    -0.018      9.68
   CaOH+           1.344e-08   1.288e-08    -7.872    -7.890    -0.019     (0)  
Cl            2.012e-09
   Cl-             2.012e-09   1.928e-09    -8.696    -8.715    -0.019     18.08
   ZnOHCl          4.632e-21   4.634e-21   -20.334   -20.334     0.000     (0)  
   ZnCl+           2.067e-21   1.980e-21   -20.685   -20.703    -0.019    -13.90
   ZnCl2           3.996e-30   3.997e-30   -29.398   -29.398     0.000    102.03
   ZnCl3-          9.023e-39   8.645e-39   -38.045   -38.063    -0.019     16.98
   ZnCl4-2         0.000e+00   0.000e+00   -47.005   -47.078    -0.073    145.19
H(0)          0.000e+00
   H2              0.000e+00   0.000e+00   -44.244   -44.244     0.000     28.61
Na            2.012e-09
   Na+             2.011e-09   1.927e-09    -8.697    -8.715    -0.018     -1.47
   NaHCO3          9.863e-13   9.866e-13   -12.006   -12.006     0.000      1.80
   NaCO3-          3.041e-13   2.914e-13   -12.517   -12.535    -0.019     -1.02
   NaOH            3.709e-25   3.710e-25   -24.431   -24.431     0.000     (0)  
O(0)          2.561e-04
   O2              1.281e-04   1.281e-04    -3.893    -3.892     0.000     30.40
Zn            1.500e-12
   ZnCO3           6.181e-13   6.183e-13   -12.209   -12.209     0.000     (0)  
   Zn+2            4.519e-13   3.816e-13   -12.345   -12.418    -0.073    -25.34
   Zn(OH)2         1.738e-13   1.738e-13   -12.760   -12.760     0.000     (0)  
   Zn(CO3)2-2      1.274e-13   1.073e-13   -12.895   -12.969    -0.074     (0)  
   ZnOH+           8.307e-14   7.959e-14   -13.081   -13.099    -0.019     (0)  
   ZnHCO3+         4.565e-14   4.374e-14   -13.341   -13.359    -0.019     (0)  
   Zn(OH)3-        1.091e-16   1.045e-16   -15.962   -15.981    -0.019     (0)  
   ZnOHCl          4.632e-21   4.634e-21   -20.334   -20.334     0.000     (0)  
   Zn(OH)4-2       3.739e-21   3.151e-21   -20.427   -20.501    -0.074     (0)  
   ZnCl+           2.067e-21   1.980e-21   -20.685   -20.703    -0.019    -13.90
   ZnCl2           3.996e-30   3.997e-30   -29.398   -29.398     0.000    102.03
   ZnCl3-          9.023e-39   8.645e-39   -38.045   -38.063    -0.019     16.98
   ZnCl4-2         0.000e+00   0.000e+00   -47.005   -47.078    -0.073    145.19

------------------------------Saturation indices-------------------------------

  Phase               SI** log IAP   log K(298 K,   1 atm)

  Aragonite        -0.14     -8.48   -8.34  CaCO3
  Calcite          -0.00     -8.48   -8.48  CaCO3
  CH4(g)         -142.15   -144.95   -2.80  CH4
  CO2(g)           -3.50     -4.97   -1.47  CO2
  H2(g)           -41.14    -44.24   -3.10  H2
  H2O(g)           -1.50     -0.00    1.50  H2O
  Halite          -19.00    -17.43    1.57  NaCl
  O2(g)            -1.00     -3.89   -2.89  O2
  Smithsonite      -7.51    -17.51  -10.00  ZnCO3
  Zn(OH)2(e)       -7.36      4.14   11.50  Zn(OH)2

**For a gas, SI = log10(fugacity). Fugacity = pressure * phi / 1 atm.
  For ideal gases, phi = 1.

Using solution 10.	
Using pure phase assemblage 10.	
Using solid solution assemblage 10.	

-------------------------------Phase assemblage--------------------------------

                                                      Moles in assemblage
Phase               SI  log IAP  log K(T, P)   Initial       Final       Delta

Halite          -19.00   -17.43      1.57    1.000e+01   1.000e+01  -2.012e-09

--------------------------------Solid solutions--------------------------------


Solid solution                Component        Moles  Delta moles   Mole fract

CaZnCO3                                     0.00e+00
                                Calcite     0.00e+00     5.25e-15     0.00e+00
                            Smithsonite     0.00e+00     2.19e-23     0.00e+00

-----------------------------Solution composition------------------------------

	Elements           Molality       Moles

	C                 9.803e-04   9.803e-04
	Ca                4.934e-04   4.934e-04
	Cl                2.012e-09   2.012e-09
	Na                2.012e-09   2.012e-09
	Zn                1.500e-12   1.500e-12

----------------------------Description of solution----------------------------

                                       pH  =   8.279      Charge balance
                                       pe  =  12.268      Adjusted to redox equilibrium
      Specific Conductance (µS/cm,  25°C)  = 96
                          Density (g/cm³)  =   0.99711
                               Volume (L)  =   1.00298
                        Activity of water  =   1.000
                 Ionic strength (mol/kgw)  =   1.463e-03
                       Mass of water (kg)  =   1.000e+00
                 Total alkalinity (eq/kg)  =   9.867e-04
                       Total CO2 (mol/kg)  =   9.803e-04
                         Temperature (°C)  =  25.00
                  Electrical balance (eq)  =  -7.220e-12
 Percent error, 100*(Cat-|An|)/(Cat+|An|)  =  -0.00
                               Iterations  =  10
                                  Total H  = 1.110134e+02
                                  Total O  = 5.550940e+01

----------------------------Distribution of species----------------------------

                                               Log       Log       Log    mole V
   Species          Molality    Activity  Molality  Activity     Gamma   cm³/mol

   OH-             2.010e-06   1.925e-06    -5.697    -5.716    -0.019     -4.10
   H+              5.474e-09   5.257e-09    -8.262    -8.279    -0.018      0.00
   H2O             5.551e+01   1.000e+00     1.744    -0.000     0.000     18.07
C(-4)         0.000e+00
   CH4             0.000e+00   0.000e+00  -144.953  -144.953     0.000     35.46
C(4)          9.803e-04
   HCO3-           9.494e-04   9.103e-04    -3.023    -3.041    -0.018     24.69
   CO2             1.076e-05   1.076e-05    -4.968    -4.968     0.000     34.43
   CO3-2           9.608e-06   8.120e-06    -5.017    -5.090    -0.073     -5.25
   CaCO3           5.563e-06   5.565e-06    -5.255    -5.255     0.000    -14.60
   CaHCO3+         4.940e-06   4.738e-06    -5.306    -5.324    -0.018      9.68
   (CO2)2          2.125e-12   2.125e-12   -11.673   -11.673     0.000     68.87
   NaHCO3          9.863e-13   9.866e-13   -12.006   -12.006     0.000      1.80
   ZnCO3           6.181e-13   6.183e-13   -12.209   -12.209     0.000     (0)  
   NaCO3-          3.041e-13   2.914e-13   -12.517   -12.535    -0.019     -1.02
   Zn(CO3)2-2      1.274e-13   1.073e-13   -12.895   -12.969    -0.074     (0)  
   ZnHCO3+         4.565e-14   4.374e-14   -13.341   -13.359    -0.019     (0)  
Ca            4.934e-04
   Ca+2            4.828e-04   4.080e-04    -3.316    -3.389    -0.073    -18.12
   CaCO3           5.563e-06   5.565e-06    -5.255    -5.255     0.000    -14.60
   CaHCO3+         4.940e-06   4.738e-06    -5.306    -5.324    -0.018      9.68
   CaOH+           1.344e-08   1.288e-08    -7.872    -7.890    -0.019     (0)  
Cl            2.012e-09
   Cl-             2.012e-09   1.928e-09    -8.696    -8.715    -0.019     18.08
   ZnOHCl          4.632e-21   4.634e-21   -20.334   -20.334     0.000     (0)  
   ZnCl+           2.067e-21   1.980e-21   -20.685   -20.703    -0.019    -13.90
   ZnCl2           3.996e-30   3.997e-30   -29.398   -29.398     0.000    102.03
   ZnCl3-          9.023e-39   8.645e-39   -38.045   -38.063    -0.019     16.98
   ZnCl4-2         0.000e+00   0.000e+00   -47.005   -47.078    -0.073    145.19
H(0)          0.000e+00
   H2              0.000e+00   0.000e+00   -44.244   -44.244     0.000     28.61
Na            2.012e-09
   Na+             2.011e-09   1.927e-09    -8.697    -8.715    -0.018     -1.47
   NaHCO3          9.863e-13   9.866e-13   -12.006   -12.006     0.000      1.80
   NaCO3-          3.041e-13   2.914e-13   -12.517   -12.535    -0.019     -1.02
   NaOH            3.709e-25   3.710e-25   -24.431   -24.431     0.000     (0)  
O(0)          2.561e-04
   O2              1.281e-04   1.281e-04    -3.893    -3.892     0.000     30.40
Zn            1.500e-12
   ZnCO3           6.181e-13   6.183e-13   -12.209   -12.209     0.000     (0)  
   Zn+2            4.519e-13   3.816e-13   -12.345   -12.418    -0.073    -25.34
   Zn(OH)2         1.738e-13   1.738e-13   -12.760   -12.760     0.000     (0)  
   Zn(CO3)2-2      1.274e-13   1.073e-13   -12.895   -12.969    -0.074     (0)  
   ZnOH+           8.307e-14   7.959e-14   -13.081   -13.099    -0.019     (0)  
   ZnHCO3+         4.565e-14   4.374e-14   -13.341   -13.359    -0.019     (0)  
   Zn(OH)3-        1.091e-16   1.045e-16   -15.962   -15.981    -0.019     (0)  
   ZnOHCl          4.632e-21   4.634e-21   -20.334   -20.334     0.000     (0)  
[...]
                        Activity of water  =   1.000
                 Ionic strength (mol/kgw)  =   1.696e-03
                       Mass of water (kg)  =   1.000e+00
                 Total alkalinity (eq/kg)  =   1.146e-03
                       Total CO2 (mol/kg)  =   1.146e-03
                         Temperature (°C)  =  25.00
                  Electrical balance (eq)  =   6.879e-12
 Percent error, 100*(Cat-|An|)/(Cat+|An|)  =   0.00
                               Iterations  =  21
                                  Total H  = 1.110154e+02
                                  Total O  = 5.551083e+01

----------------------------Distribution of species----------------------------

                                               Log       Log       Log    mole V
   Species          Molality    Activity  Molality  Activity     Gamma   cm³/mol

   OH-             1.512e-06   1.444e-06    -5.820    -5.841    -0.020     -4.10
   H+              7.319e-09   7.011e-09    -8.136    -8.154    -0.019      0.00
   H2O             5.551e+01   1.000e+00     1.744    -0.000     0.000     18.07
C(-4)         0.000e+00
   CH4             0.000e+00   0.000e+00  -144.762  -144.762     0.000     35.46
C(4)          1.146e-03
   HCO3-           1.108e-03   1.059e-03    -2.955    -2.975    -0.020     24.69
   CO2             1.669e-05   1.670e-05    -4.777    -4.777     0.000     34.43
   CO3-2           8.487e-06   7.087e-06    -5.071    -5.150    -0.078     -5.24
   CaHCO3+         6.604e-06   6.315e-06    -5.180    -5.200    -0.019      9.68
   CaCO3           5.560e-06   5.562e-06    -5.255    -5.255     0.000    -14.60
   ZnCO3           4.639e-07   4.641e-07    -6.334    -6.333     0.000     (0)  
   Zn(CO3)2-2      8.447e-08   7.032e-08    -7.073    -7.153    -0.080     (0)  
   ZnHCO3+         4.583e-08   4.378e-08    -7.339    -7.359    -0.020     (0)  
   (CO2)2          5.116e-12   5.118e-12   -11.291   -11.291     0.000     68.87
   NaHCO3          1.148e-12   1.148e-12   -11.940   -11.940     0.000      1.80
   NaCO3-          2.663e-13   2.543e-13   -12.575   -12.595    -0.020     -1.02
Ca            5.719e-04
   Ca+2            5.597e-04   4.672e-04    -3.252    -3.330    -0.078    -18.11
   CaHCO3+         6.604e-06   6.315e-06    -5.180    -5.200    -0.019      9.68
   CaCO3           5.560e-06   5.562e-06    -5.255    -5.255     0.000    -14.60
   CaOH+           1.158e-08   1.106e-08    -7.936    -7.956    -0.020     (0)  
Cl            2.019e-09
   Cl-             2.018e-09   1.928e-09    -8.695    -8.715    -0.020     18.08
   ZnOHCl          2.987e-15   2.989e-15   -14.525   -14.525     0.000     (0)  
   ZnCl+           1.783e-15   1.703e-15   -14.749   -14.769    -0.020    -13.90
   ZnCl2           3.436e-24   3.438e-24   -23.464   -23.464     0.000    102.03
   ZnCl3-          7.784e-33   7.435e-33   -32.109   -32.129    -0.020     16.98
   ZnCl4-2         0.000e+00   0.000e+00   -41.065   -41.144    -0.079    145.20
H(0)          0.000e+00
   H2              0.000e+00   0.000e+00   -44.244   -44.244     0.000     28.61
Na            2.019e-09
   Na+             2.017e-09   1.927e-09    -8.695    -8.715    -0.020     -1.46
   NaHCO3          1.148e-12   1.148e-12   -11.940   -11.940     0.000      1.80
   NaCO3-          2.663e-13   2.543e-13   -12.575   -12.595    -0.020     -1.02
   NaOH            2.781e-25   2.783e-25   -24.556   -24.556     0.000     (0)  
O(0)          2.560e-04
   O2              1.280e-04   1.280e-04    -3.893    -3.893     0.000     30.40
Zn            1.126e-06
   ZnCO3           4.639e-07   4.641e-07    -6.334    -6.333     0.000     (0)  
   Zn+2            3.934e-07   3.282e-07    -6.405    -6.484    -0.079    -25.33
   Zn(CO3)2-2      8.447e-08   7.032e-08    -7.073    -7.153    -0.080     (0)  
   Zn(OH)2         8.404e-08   8.407e-08    -7.076    -7.075     0.000     (0)  
   ZnOH+           5.374e-08   5.134e-08    -7.270    -7.290    -0.020     (0)  
   ZnHCO3+         4.583e-08   4.378e-08    -7.339    -7.359    -0.020     (0)  
   Zn(OH)3-        3.970e-11   3.792e-11   -10.401   -10.421    -0.020     (0)  
   ZnOHCl          2.987e-15   2.989e-15   -14.525   -14.525     0.000     (0)  
   ZnCl+           1.783e-15   1.703e-15   -14.749   -14.769    -0.020    -13.90
   Zn(OH)4-2       1.030e-15   8.573e-16   -14.987   -15.067    -0.080     (0)  
   ZnCl2           3.436e-24   3.438e-24   -23.464   -23.464     0.000    102.03
   ZnCl3-          7.784e-33   7.435e-33   -32.109   -32.129    -0.020     16.98
   ZnCl4-2         0.000e+00   0.000e+00   -41.065   -41.144    -0.079    145.20

------------------------------Saturation indices-------------------------------

  Phase               SI** log IAP   log K(298 K,   1 atm)

  Aragonite        -0.14     -8.48   -8.34  CaCO3
  Calcite          -0.00     -8.48   -8.48  CaCO3
  CH4(g)         -141.96   -144.76   -2.80  CH4
  CO2(g)           -3.31     -4.78   -1.47  CO2
  H2(g)           -41.14    -44.24   -3.10  H2
  H2O(g)           -1.50     -0.00    1.50  H2O
  Halite          -19.00    -17.43    1.57  NaCl
  O2(g)            -1.00     -3.89   -2.89  O2
  Smithsonite      -1.63    -11.63  -10.00  ZnCO3
  Zn(OH)2(e)       -1.68      9.82   11.50  Zn(OH)2

**For a gas, SI = log10(fugacity). Fugacity = pressure * phi / 1 atm.
  For ideal gases, phi = 1.

Using solution 9.	Solution after simulation 3.
Using pure phase assemblage 9.	Pure-phase assemblage after simulation 3.
Using solid solution assemblage 9.	Solid solution assemblage after simulation 3
Using kinetics 9.	

Kinetics 9.	

	Time:      36000 seconds
	Time step: 3600 seconds

	Rate name       Delta Moles Total Moles   Reactant        Coefficient

	CO2_escape       -3.126e-05   9.999e-01   CO2                      -1

-------------------------------Phase assemblage--------------------------------

                                                      Moles in assemblage
Phase               SI  log IAP  log K(T, P)   Initial       Final       Delta

Halite          -19.00   -17.43      1.57    1.000e+01   1.000e+01   2.203e-12

--------------------------------Solid solutions--------------------------------


Solid solution                Component        Moles  Delta moles   Mole fract

CaZnCO3                                     5.68e-05
                                Calcite     5.67e-05     2.84e-05     1.00e+00
                            Smithsonite     2.41e-08     1.20e-08     4.24e-04

-----------------------------Solution composition------------------------------

	Elements           Molality       Moles

	C                 1.087e-03   1.087e-03
	Ca                5.435e-04   5.435e-04
	Cl                2.016e-09   2.016e-09
	Na                2.016e-09   2.016e-09
	Zn                1.113e-06   1.113e-06

----------------------------Description of solution----------------------------

                                       pH  =   8.197      Charge balance
                                       pe  =  12.350      Adjusted to redox equilibrium
      Specific Conductance (µS/cm,  25°C)  = 105
                          Density (g/cm³)  =   0.99711
                               Volume (L)  =   1.00300
                        Activity of water  =   1.000
                 Ionic strength (mol/kgw)  =   1.612e-03
                       Mass of water (kg)  =   1.000e+00
                 Total alkalinity (eq/kg)  =   1.089e-03
                       Total CO2 (mol/kg)  =   1.087e-03
                         Temperature (°C)  =  25.00
                  Electrical balance (eq)  =   6.889e-12
 Percent error, 100*(Cat-|An|)/(Cat+|An|)  =   0.00
                               Iterations  =  21
                                  Total H  = 1.110154e+02
                                  Total O  = 5.551068e+01

----------------------------Distribution of species----------------------------

                                               Log       Log       Log    mole V
   Species          Molality    Activity  Molality  Activity     Gamma   cm³/mol

   OH-             1.666e-06   1.593e-06    -5.778    -5.798    -0.020     -4.10
   H+              6.627e-09   6.353e-09    -8.179    -8.197    -0.018      0.00
   H2O             5.551e+01   1.000e+00     1.744    -0.000     0.000     18.07
C(-4)         0.000e+00
   CH4             0.000e+00   0.000e+00  -144.827  -144.827     0.000     35.46
C(4)          1.087e-03
   HCO3-           1.051e-03   1.006e-03    -2.978    -2.997    -0.019     24.69
   CO2             1.436e-05   1.437e-05    -4.843    -4.843     0.000     34.43
   CO3-2           8.854e-06   7.425e-06    -5.053    -5.129    -0.076     -5.24
   CaHCO3+         5.979e-06   5.723e-06    -5.223    -5.242    -0.019      9.68
   CaCO3           5.560e-06   5.562e-06    -5.255    -5.255     0.000    -14.60
   ZnCO3           4.605e-07   4.607e-07    -6.337    -6.337     0.000     (0)  
   Zn(CO3)2-2      8.747e-08   7.313e-08    -7.058    -7.136    -0.078     (0)  
   ZnHCO3+         4.118e-08   3.938e-08    -7.385    -7.405    -0.019     (0)  
   (CO2)2          3.789e-12   3.790e-12   -11.422   -11.421     0.000     68.87
   NaHCO3          1.090e-12   1.090e-12   -11.963   -11.962     0.000      1.80
   NaCO3-          2.787e-13   2.665e-13   -12.555   -12.574    -0.019     -1.02
Ca            5.435e-04
   Ca+2            5.319e-04   4.460e-04    -3.274    -3.351    -0.077    -18.11
   CaHCO3+         5.979e-06   5.723e-06    -5.223    -5.242    -0.019      9.68
   CaCO3           5.560e-06   5.562e-06    -5.255    -5.255     0.000    -14.60
   CaOH+           1.218e-08   1.165e-08    -7.914    -7.934    -0.019     (0)  
Cl            2.016e-09
   Cl-             2.016e-09   1.928e-09    -8.695    -8.715    -0.020     18.08
   ZnOHCl          3.123e-15   3.124e-15   -14.505   -14.505     0.000     (0)  
   ZnCl+           1.687e-15   1.613e-15   -14.773   -14.792    -0.019    -13.90
   ZnCl2           3.256e-24   3.257e-24   -23.487   -23.487     0.000    102.03
   ZnCl3-          7.367e-33   7.044e-33   -32.133   -32.152    -0.019     16.98
   ZnCl4-2         0.000e+00   0.000e+00   -41.090   -41.167    -0.077    145.20
H(0)          0.000e+00
   H2              0.000e+00   0.000e+00   -44.244   -44.244     0.000     28.61
Na            2.016e-09
   Na+             2.015e-09   1.927e-09    -8.696    -8.715    -0.019     -1.47
   NaHCO3          1.090e-12   1.090e-12   -11.963   -11.962     0.000      1.80
   NaCO3-          2.787e-13   2.665e-13   -12.555   -12.574    -0.019     -1.02
   NaOH            3.069e-25   3.070e-25   -24.513   -24.513     0.000     (0)  
O(0)          2.560e-04
   O2              1.280e-04   1.280e-04    -3.893    -3.893     0.000     30.40
Zn            1.113e-06
   ZnCO3           4.605e-07   4.607e-07    -6.337    -6.337     0.000     (0)  
   Zn+2            3.712e-07   3.110e-07    -6.430    -6.507    -0.077    -25.33
   Zn(OH)2         9.694e-08   9.698e-08    -7.013    -7.013     0.000     (0)  
   Zn(CO3)2-2      8.747e-08   7.313e-08    -7.058    -7.136    -0.078     (0)  
   ZnOH+           5.612e-08   5.367e-08    -7.251    -7.270    -0.019     (0)  
   ZnHCO3+         4.118e-08   3.938e-08    -7.385    -7.405    -0.019     (0)  
   Zn(OH)3-        5.048e-11   4.827e-11   -10.297   -10.316    -0.019     (0)  
   ZnOHCl          3.123e-15   3.124e-15   -14.505   -14.505     0.000     (0)  
   ZnCl+           1.687e-15   1.613e-15   -14.773   -14.792    -0.019    -13.90
   Zn(OH)4-2       1.440e-15   1.204e-15   -14.842   -14.919    -0.078     (0)  
   ZnCl2           3.256e-24   3.257e-24   -23.487   -23.487     0.000    102.03
   ZnCl3-          7.367e-33   7.044e-33   -32.133   -32.152    -0.019     16.98
   ZnCl4-2         0.000e+00   0.000e+00   -41.090   -41.167    -0.077    145.20

------------------------------Saturation indices-------------------------------

  Phase               SI** log IAP   log K(298 K,   1 atm)

  Aragonite        -0.14     -8.48   -8.34  CaCO3
  Calcite          -0.00     -8.48   -8.48  CaCO3
  CH4(g)         -142.03   -144.83   -2.80  CH4
  CO2(g)           -3.37     -4.84   -1.47  CO2
  H2(g)           -41.14    -44.24   -3.10  H2
  H2O(g)           -1.50     -0.00    1.50  H2O
  Halite          -19.00    -17.43    1.57  NaCl
  O2(g)            -1.00     -3.89   -2.89  O2
  Smithsonite      -1.64    -11.64  -10.00  ZnCO3
  Zn(OH)2(e)       -1.61      9.89   11.50  Zn(OH)2

**For a gas, SI = log10(fugacity). Fugacity = pressure * phi / 1 atm.
  For ideal gases, phi = 1.

Using solution 10.	Solution after simulation 3.
Using pure phase assemblage 10.	Pure-phase assemblage after simulation 3.
Using solid solution assemblage 10.	Solid solution assemblage after simulation 3
Using kinetics 10.	

Kinetics 10.	

	Time:      36000 seconds
	Time step: 3600 seconds

	Rate name       Delta Moles Total Moles   Reactant        Coefficient

	CO2_escape       -2.036e-05   1.000e+00   CO2                      -1

-------------------------------Phase assemblage--------------------------------

                                                      Moles in assemblage
Phase               SI  log IAP  log K(T, P)   Initial       Final       Delta

Halite          -19.00   -17.43      1.57    1.000e+01   1.000e+01   1.474e-12

--------------------------------Solid solutions--------------------------------


Solid solution                Component        Moles  Delta moles   Mole fract

CaZnCO3                                     1.86e-05
                                Calcite     1.85e-05     1.85e-05     1.00e+00
                            Smithsonite     7.82e-09     7.82e-09     4.21e-04

-----------------------------Solution composition------------------------------

	Elements           Molality       Moles

	C                 1.048e-03   1.048e-03
	Ca                5.249e-04   5.250e-04
	Cl                2.015e-09   2.015e-09
	Na                2.015e-09   2.015e-09
	Zn                1.106e-06   1.106e-06

----------------------------Description of solution----------------------------

                                       pH  =   8.226      Charge balance
                                       pe  =  12.321      Adjusted to redox equilibrium
      Specific Conductance (µS/cm,  25°C)  = 102
                          Density (g/cm³)  =   0.99711
                               Volume (L)  =   1.00300
                        Activity of water  =   1.000
                 Ionic strength (mol/kgw)  =   1.557e-03
                       Mass of water (kg)  =   1.000e+00
                 Total alkalinity (eq/kg)  =   1.052e-03
                       Total CO2 (mol/kg)  =   1.048e-03
                         Temperature (°C)  =  25.00
                  Electrical balance (eq)  =   3.775e-12
 Percent error, 100*(Cat-|An|)/(Cat+|An|)  =   0.00
                               Iterations  =  46
                                  Total H  = 1.110154e+02
                                  Total O  = 5.551059e+01

----------------------------Distribution of species----------------------------

                                               Log       Log       Log    mole V
   Species          Molality    Activity  Molality  Activity     Gamma   cm³/mol

   OH-             1.781e-06   1.704e-06    -5.749    -5.769    -0.019     -4.10
   H+              6.191e-09   5.939e-09    -8.208    -8.226    -0.018      0.00
   H2O             5.551e+01   1.000e+00     1.744    -0.000     0.000     18.07
C(-4)         0.000e+00
   CH4             0.000e+00   0.000e+00  -144.872  -144.872     0.000     35.46
C(4)          1.048e-03
   HCO3-           1.014e-03   9.708e-04    -2.994    -3.013    -0.019     24.69
   CO2             1.296e-05   1.296e-05    -4.887    -4.887     0.000     34.43
   CO3-2           9.116e-06   7.666e-06    -5.040    -5.115    -0.075     -5.24
   CaHCO3+         5.585e-06   5.350e-06    -5.253    -5.272    -0.019      9.68
   CaCO3           5.561e-06   5.563e-06    -5.255    -5.255     0.000    -14.60
   ZnCO3           4.574e-07   4.576e-07    -6.340    -6.340     0.000     (0)  
   Zn(CO3)2-2      8.944e-08   7.499e-08    -7.048    -7.125    -0.076     (0)  
   ZnHCO3+         3.821e-08   3.656e-08    -7.418    -7.437    -0.019     (0)  
   (CO2)2          3.084e-12   3.085e-12   -11.511   -11.511     0.000     68.87
   NaHCO3          1.052e-12   1.052e-12   -11.978   -11.978     0.000      1.80
   NaCO3-          2.875e-13   2.751e-13   -12.541   -12.560    -0.019     -1.02
Ca            5.249e-04
   Ca+2            5.138e-04   4.320e-04    -3.289    -3.365    -0.075    -18.11
   CaHCO3+         5.585e-06   5.350e-06    -5.253    -5.272    -0.019      9.68
   CaCO3           5.561e-06   5.563e-06    -5.255    -5.255     0.000    -14.60
   CaOH+           1.261e-08   1.207e-08    -7.899    -7.918    -0.019     (0)  
Cl            2.015e-09
   Cl-             2.015e-09   1.928e-09    -8.696    -8.715    -0.019     18.08
   ZnOHCl          3.214e-15   3.215e-15   -14.493   -14.493     0.000     (0)  
   ZnCl+           1.622e-15   1.552e-15   -14.790   -14.809    -0.019    -13.90
   ZnCl2           3.132e-24   3.133e-24   -23.504   -23.504     0.000    102.03
   ZnCl3-          7.082e-33   6.777e-33   -32.150   -32.169    -0.019     16.98
   ZnCl4-2         0.000e+00   0.000e+00   -41.108   -41.184    -0.076    145.19
H(0)          0.000e+00
   H2              0.000e+00   0.000e+00   -44.244   -44.244     0.000     28.61
Na            2.015e-09
   Na+             2.013e-09   1.927e-09    -8.696    -8.715    -0.019     -1.47
   NaHCO3          1.052e-12   1.052e-12   -11.978   -11.978     0.000      1.80
   NaCO3-          2.875e-13   2.751e-13   -12.541   -12.560    -0.019     -1.02
   NaOH            3.283e-25   3.284e-25   -24.484   -24.484     0.000     (0)  
O(0)          2.560e-04
   O2              1.280e-04   1.280e-04    -3.893    -3.893     0.000     30.40
Zn            1.106e-06
   ZnCO3           4.574e-07   4.576e-07    -6.340    -6.340     0.000     (0)  
   Zn+2            3.561e-07   2.992e-07    -6.448    -6.524    -0.076    -25.33
   Zn(OH)2         1.067e-07   1.068e-07    -6.972    -6.972     0.000     (0)  
   Zn(CO3)2-2      8.944e-08   7.499e-08    -7.048    -7.125    -0.076     (0)  
   ZnOH+           5.772e-08   5.523e-08    -7.239    -7.258    -0.019     (0)  
   ZnHCO3+         3.821e-08   3.656e-08    -7.418    -7.437    -0.019     (0)  
   Zn(OH)3-        5.940e-11   5.684e-11   -10.226   -10.245    -0.019     (0)  
   ZnOHCl          3.214e-15   3.215e-15   -14.493   -14.493     0.000     (0)  
   Zn(OH)4-2       1.809e-15   1.517e-15   -14.743   -14.819    -0.076     (0)  
   ZnCl+           1.622e-15   1.552e-15   -14.790   -14.809    -0.019    -13.90
   ZnCl2           3.132e-24   3.133e-24   -23.504   -23.504     0.000    102.03
   ZnCl3-          7.082e-33   6.777e-33   -32.150   -32.169    -0.019     16.98
   ZnCl4-2         0.000e+00   0.000e+00   -41.108   -41.184    -0.076    145.19

------------------------------Saturation indices-------------------------------

  Phase               SI** log IAP   log K(298 K,   1 atm)

  Aragonite        -0.14     -8.48   -8.34  CaCO3
  Calcite          -0.00     -8.48   -8.48  CaCO3
  CH4(g)         -142.07   -144.87   -2.80  CH4
  CO2(g)           -3.42     -4.89   -1.47  CO2
  H2(g)           -41.14    -44.24   -3.10  H2
  H2O(g)           -1.50     -0.00    1.50  H2O
  Halite          -19.00    -17.43    1.57  NaCl
  O2(g)            -1.00     -3.89   -2.89  O2
  Smithsonite      -1.64    -11.64  -10.00  ZnCO3
  Zn(OH)2(e)       -1.57      9.93   11.50  Zn(OH)2

**For a gas, SI = log10(fugacity). Fugacity = pressure * phi / 1 atm.
  For ideal gases, phi = 1.

------------------
End of simulation.
------------------

------------------------------------
Reading input data for simulation 4.
------------------------------------

------------------------------
End of Run after 0.36 Seconds.
------------------------------

