   Input file: surf_kin_related
  Output file: surf_kin_related.out
Database file: ../database/phreeqc.dat

------------------
Reading data base.
------------------

	SOLUTION_MASTER_SPECIES
	SOLUTION_SPECIES
	PHASES
	EXCHANGE_MASTER_SPECIES
	EXCHANGE_SPECIES
	SURFACE_MASTER_SPECIES
	SURFACE_SPECIES
	RATES
	END
------------------------------------
Reading input data for simulation 1.
------------------------------------

	DATABASE ../database/phreeqc.dat
	KNOBS
		convergence_tolerance	1e-12
	RATES
	Pyrolusite
		start
	20      rem   1 hour half life
	40	moles = log(0.5) / 3600 * m * time
	50      if (moles > m) then moles = m
	60      rem print -moles
	200	save -moles
		end
	SOLUTION 1
		pH	7.0
		pe	8.0
		temp	20.0
		Ca	4.5
		Cl	9.0	charge
	SOLUTION 0 # FeCl2 injected solution
		pH	6.0
		pe	0.0
		temp	20.0
		Fe	15.5   # Analyzed: 14.55 
		Cl	31.	charge
		Mn	1e-8
		Al	1.e-8
	SURFACE 1
		Hfo_wOH    pyrolusite  		kine	0.1
		Hfo_sOH    pyrolusite  		kine	.01	500
	KINETICS 1
		Pyrolusite
			formula MnO2H2O 1.0 NaF 1.0
			m	1
		steps	3600
		step_divide	100
	USE solution 0
	END
-------------------------------------------
Beginning of initial solution calculations.
-------------------------------------------

Initial solution 0.	

-----------------------------Solution composition------------------------------

	Elements           Molality       Moles

	Al                1.000e-11   1.000e-11
	Cl                3.100e-02   3.100e-02  Charge balance
	Fe                1.550e-02   1.550e-02
	Mn                1.000e-11   1.000e-11

----------------------------Description of solution----------------------------

                                       pH  =   6.000    
                                       pe  =   0.000    
       Specific Conductance (uS/cm, 20 oC) = 2927
                          Density (g/cm3)  =   0.99990
                        Activity of water  =   0.999
                           Ionic strength  =   4.587e-02
                       Mass of water (kg)  =   1.000e+00
                 Total alkalinity (eq/kg)  =   8.082e-07
                    Total carbon (mol/kg)  =   0.000e+00
                       Total CO2 (mol/kg)  =   0.000e+00
                      Temperature (deg C)  =  20.00
                  Electrical balance (eq)  =  -1.137e-16
 Percent error, 100*(Cat-|An|)/(Cat+|An|)  =  -0.00
                               Iterations  =   9
                                  Total H  = 1.110124e+02
                                  Total O  = 5.550622e+01

----------------------------Distribution of species----------------------------

                                            Log       Log         Log     mole V
   Species          Molality    Activity  Molality  Activity     Gamma   cm3/mol

   H+              1.165e-06   1.000e-06    -5.934    -6.000    -0.066      0.00
   OH-             8.348e-09   6.833e-09    -8.078    -8.165    -0.087     -3.79
   H2O             5.551e+01   9.992e-01     1.744    -0.000     0.000     18.05
Al            1.000e-11
   Al(OH)2+        5.862e-12   4.851e-12   -11.232   -11.314    -0.082     (0)  
   AlOH+2          2.071e-12   9.711e-13   -11.684   -12.013    -0.329     (0)  
   Al(OH)4-        1.045e-12   8.650e-13   -11.981   -12.063    -0.082     45.99
   Al+3            5.379e-13   1.359e-13   -12.269   -12.867    -0.597    -42.68
   Al(OH)3         4.830e-13   4.881e-13   -12.316   -12.311     0.005     (0)  
Cl            3.100e-02
   Cl-             3.068e-02   2.516e-02    -1.513    -1.599    -0.086     18.03
   FeCl+           3.158e-04   2.613e-04    -3.501    -3.583    -0.082     (0)  
   MnCl+           5.780e-13   4.783e-13   -12.238   -12.320    -0.082     (0)  
   MnCl2           5.197e-15   5.252e-15   -14.284   -14.280     0.005     (0)  
   FeCl+2          7.500e-16   3.516e-16   -15.125   -15.454    -0.329     (0)  
   FeCl2+          5.610e-17   4.642e-17   -16.251   -16.333    -0.082     (0)  
   MnCl3-          4.397e-17   3.639e-17   -16.357   -16.439    -0.082     (0)  
   FeCl3           1.156e-19   1.168e-19   -18.937   -18.933     0.005     (0)  
Fe(2)         1.550e-02
   Fe+2            1.518e-02   7.524e-03    -1.819    -2.124    -0.305    -21.76
   FeCl+           3.158e-04   2.613e-04    -3.501    -3.583    -0.082     (0)  
   FeOH+           1.965e-06   1.626e-06    -5.707    -5.789    -0.082     (0)  
Fe(3)         9.355e-10
   Fe(OH)2+        8.575e-10   7.095e-10    -9.067    -9.149    -0.082     (0)  
   Fe(OH)3         7.241e-11   7.318e-11   -10.140   -10.136     0.005     (0)  
   FeOH+2          5.547e-12   2.601e-12   -11.256   -11.585    -0.329     (0)  
   Fe(OH)4-        6.569e-14   5.436e-14   -13.182   -13.265    -0.082     (0)  
   Fe+3            2.152e-15   5.438e-16   -14.667   -15.265    -0.597     (0)  
   FeCl+2          7.500e-16   3.516e-16   -15.125   -15.454    -0.329     (0)  
   FeCl2+          5.610e-17   4.642e-17   -16.251   -16.333    -0.082     (0)  
   FeCl3           1.156e-19   1.168e-19   -18.937   -18.933     0.005     (0)  
   Fe2(OH)2+4      4.649e-21   2.246e-22   -20.333   -21.649    -1.316     (0)  
   Fe3(OH)4+5      6.059e-27   5.324e-29   -26.218   -28.274    -2.056     (0)  
H(0)          1.474e-15
   H2              7.369e-16   7.447e-16   -15.133   -15.128     0.005     20.00
Mn(2)         1.000e-11
   Mn+2            9.417e-12   4.667e-12   -11.026   -11.331    -0.305    -16.16
   MnCl+           5.780e-13   4.783e-13   -12.238   -12.320    -0.082     (0)  
   MnCl2           5.197e-15   5.252e-15   -14.284   -14.280     0.005     (0)  
   MnOH+           9.570e-17   7.919e-17   -16.019   -16.101    -0.082     (0)  
   MnCl3-          4.397e-17   3.639e-17   -16.357   -16.439    -0.082     (0)  
Mn(3)         3.773e-37
   Mn+3            3.773e-37   6.862e-38   -36.423   -37.164    -0.740     (0)  
O(0)          0.000e+00
   O2              0.000e+00   0.000e+00   -63.770   -63.766     0.005     35.00

------------------------------Saturation indices-------------------------------

	Phase               SI   log IAP   log K(293 K,   1 atm)

	Al(OH)3(a)       -6.00      5.13   11.13  Al(OH)3
	Fe(OH)3(a)       -2.16      2.73    4.89  Fe(OH)3
	Gibbsite         -3.26      5.13    8.40  Al(OH)3
	Goethite          3.55      2.73   -0.82  FeOOH
	H2(g)           -12.04    -15.13   -3.09  H2
	H2O(g)           -1.63     -0.00    1.63  H2O
	Hausmannite     -48.28     14.01   62.29  Mn3O4
	Hematite          9.09      5.47   -3.62  Fe2O3
	Manganite       -18.67      6.67   25.34  MnOOH
	O2(g)           -60.91    -63.77   -2.85  O2
	Pyrochroite     -14.53      0.67   15.20  Mn(OH)2
	Pyrolusite      -29.53     12.67   42.19  MnO2:H2O


Initial solution 1.	

-----------------------------Solution composition------------------------------

	Elements           Molality       Moles

	Ca                4.500e-03   4.500e-03
	Cl                9.000e-03   9.000e-03  Charge balance

----------------------------Description of solution----------------------------

                                       pH  =   7.000    
                                       pe  =   8.000    
       Specific Conductance (uS/cm, 20 oC) = 961
                          Density (g/cm3)  =   0.99858
                        Activity of water  =   1.000
                           Ionic strength  =   1.350e-02
                       Mass of water (kg)  =   1.000e+00
                 Total alkalinity (eq/kg)  =  -2.821e-08
                    Total carbon (mol/kg)  =   0.000e+00
                       Total CO2 (mol/kg)  =   0.000e+00
                      Temperature (deg C)  =  20.00
                  Electrical balance (eq)  =  -3.833e-18
 Percent error, 100*(Cat-|An|)/(Cat+|An|)  =  -0.00
                               Iterations  =   9
                                  Total H  = 1.110124e+02
                                  Total O  = 5.550622e+01

----------------------------Distribution of species----------------------------

                                            Log       Log         Log     mole V
   Species          Molality    Activity  Molality  Activity     Gamma   cm3/mol

   H+              1.106e-07   1.000e-07    -6.956    -7.000    -0.044      0.00
   OH-             7.704e-08   6.837e-08    -7.113    -7.165    -0.052     -3.90
   H2O             5.551e+01   9.998e-01     1.744    -0.000     0.000     18.05
Ca            4.500e-03
   Ca+2            4.500e-03   2.871e-03    -2.347    -2.542    -0.195    -18.02
   CaOH+           5.352e-09   4.763e-09    -8.272    -8.322    -0.051     (0)  
Cl            9.000e-03
   Cl-             9.000e-03   7.991e-03    -2.046    -2.097    -0.052     17.94
H(0)          1.485e-33
   H2              7.424e-34   7.447e-34   -33.129   -33.128     0.001     20.00
O(0)          3.423e-28
   O2              1.711e-28   1.717e-28   -27.767   -27.765     0.001     35.00

------------------------------Saturation indices-------------------------------

	Phase               SI   log IAP   log K(293 K,   1 atm)

	H2(g)           -30.04    -33.13   -3.09  H2
	H2O(g)           -1.63     -0.00    1.63  H2O
	O2(g)           -24.91    -27.77   -2.85  O2


-----------------------------------------
Beginning of batch-reaction calculations.
-----------------------------------------

Reaction step 1.

Using solution 0.	
Using surface 1.	
Using kinetics 1.	

Kinetics 1.	

	Time step: 3600 seconds

	Rate name       Delta Moles Total Moles   Reactant        Coefficient

	Pyrolusite       -5.000e-01   5.000e-01   MnO2H2O                   1
	                                          NaF                       1

------------------------------Surface composition------------------------------

Hfo           
	  5.012e-04  Surface charge, eq
	  1.934e-01  sigma, C/m**2
	  6.615e-02  psi, V
	 -2.619e+00  -F*psi/RT
	  7.288e-02  exp(-F*psi/RT)
	  5.000e+02  specific area, m**2/mol Pyrolusite
	  2.500e+02  m**2 for   5.000e-01 moles of Pyrolusite


Hfo_s         
	  5.000e-03  moles	[0.01 mol/(mol kinetic reactant Pyrolusite)]
	                                   Mole                     Log
	Species               Moles    Fraction    Molality    Molality

	Hfo_sOMn+         4.995e-03       0.999   4.991e-03      -2.302
	Hfo_sO-           4.750e-06       0.001   4.746e-06      -5.324
	Hfo_sOH           7.699e-12       0.000   7.693e-12     -11.114
	Hfo_sOH2+         2.859e-19       0.000   2.857e-19     -18.544
	Hfo_sOFe+         1.261e-29       0.000   1.260e-29     -28.900

Hfo_w         
	  5.000e-02  moles	[0.1 mol/(mol kinetic reactant Pyrolusite)]
	                                   Mole                     Log
	Species               Moles    Fraction    Molality    Molality

	Hfo_wO-           2.724e-02       0.545   2.722e-02      -1.565
	Hfo_wOMn+         2.276e-02       0.455   2.274e-02      -1.643
	Hfo_wOHF-         6.466e-06       0.000   6.461e-06      -5.190
	Hfo_wOH           4.416e-08       0.000   4.412e-08      -7.355
	Hfo_wF            1.609e-13       0.000   1.608e-13     -12.794
	Hfo_wOH2+         1.640e-15       0.000   1.638e-15     -14.786
	Hfo_wOFeOH        9.191e-22       0.000   9.183e-22     -21.037
	Hfo_wOFe+         6.751e-28       0.000   6.745e-28     -27.171

-----------------------------Solution composition------------------------------

	Elements           Molality       Moles

	Al                9.991e-12   1.000e-11
	Cl                3.097e-02   3.100e-02
	F                 4.996e-01   5.000e-01
	Fe                1.549e-02   1.550e-02
	Mn                4.718e-01   4.722e-01
	Na                4.996e-01   5.000e-01

----------------------------Description of solution----------------------------

                                       pH  =  13.583      Charge balance
                                       pe  =   8.238      Adjusted to redox equilibrium
       Specific Conductance (uS/cm, 20 oC) = 74541
                          Density (g/cm3)  =   1.06142
                        Activity of water  =   0.963
                           Ionic strength  =   9.364e-01
                       Mass of water (kg)  =   1.001e+00
                 Total alkalinity (eq/kg)  =   9.287e-01
                    Total carbon (mol/kg)  =   0.000e+00
                       Total CO2 (mol/kg)  =   0.000e+00
                      Temperature (deg C)  =  20.00
                  Electrical balance (eq)  =  -5.012e-04
 Percent error, 100*(Cat-|An|)/(Cat+|An|)  =  -0.03
                               Iterations  = 503
                                  Total H  = 1.120674e+02
                                  Total O  = 5.700622e+01

----------------------------Distribution of species----------------------------

                                            Log       Log         Log     mole V
   Species          Molality    Activity  Molality  Activity     Gamma   cm3/mol

   OH-             4.301e-01   2.521e-01    -0.366    -0.598    -0.232     -2.23
   H+              3.501e-14   2.613e-14   -13.456   -13.583    -0.127      0.00
   H2O             5.551e+01   9.634e-01     1.744    -0.016     0.000     18.05
Al            9.991e-12
   Al(OH)4-        9.991e-12   7.816e-12   -11.000   -11.107    -0.107     46.65
   Al(OH)3         9.635e-20   1.195e-19   -19.016   -18.922     0.094     (0)  
   AlF6-3          9.373e-25   1.028e-25   -24.028   -24.988    -0.960     (0)  
   AlF5-2          9.257e-25   3.466e-25   -24.034   -24.460    -0.427     (0)  
   AlF4-           1.032e-25   8.074e-26   -24.986   -25.093    -0.107     (0)  
   Al(OH)2+        4.116e-26   3.220e-26   -25.386   -25.492    -0.107     (0)  
   AlF3            6.104e-28   7.573e-28   -27.214   -27.121     0.094     (0)  
   AlF2+           2.883e-31   2.255e-31   -30.540   -30.647    -0.107     (0)  
   AlOH+2          4.665e-34   1.747e-34   -33.331   -33.758    -0.427     (0)  
   AlF+2           4.602e-36   1.723e-36   -35.337   -35.764    -0.427     (0)  
   Al+3            0.000e+00   0.000e+00   -41.036   -42.179    -1.143    -36.71
Cl            3.097e-02
   Cl-             3.092e-02   1.872e-02    -1.510    -1.728    -0.218     18.72
   MnCl+           5.696e-05   4.456e-05    -4.244    -4.351    -0.107     (0)  
   MnCl2           2.935e-07   3.641e-07    -6.532    -6.439     0.094     (0)  
   MnCl3-          2.399e-09   1.877e-09    -8.620    -8.727    -0.107     (0)  
   FeCl+           1.729e-31   1.353e-31   -30.762   -30.869    -0.107     (0)  
   FeCl+2          8.402e-35   3.146e-35   -34.076   -34.502    -0.427     (0)  
   FeCl2+          3.951e-36   3.091e-36   -35.403   -35.510    -0.107     (0)  
   FeCl3           4.663e-39   5.785e-39   -38.331   -38.238     0.094     (0)  
F             4.996e-01
   F-              4.574e-01   2.681e-01    -0.340    -0.572    -0.232      2.78
   NaF             4.081e-02   5.063e-02    -1.389    -1.296     0.094     (0)  
   MnF+            1.386e-03   1.084e-03    -2.858    -2.965    -0.107     (0)  
   HF2-            1.212e-11   9.482e-12   -10.916   -11.023    -0.107     (0)  
   HF              7.748e-12   9.612e-12   -11.111   -11.017     0.094     12.50
   FeF3            8.696e-23   1.079e-22   -22.061   -21.967     0.094     (0)  
   AlF6-3          9.373e-25   1.028e-25   -24.028   -24.988    -0.960     (0)  
   AlF5-2          9.257e-25   3.466e-25   -24.034   -24.460    -0.427     (0)  
   FeF2+           3.302e-25   2.583e-25   -24.481   -24.588    -0.107     (0)  
   AlF4-           1.032e-25   8.074e-26   -24.986   -25.093    -0.107     (0)  
   AlF3            6.104e-28   7.573e-28   -27.214   -27.121     0.094     (0)  
   FeF+2           6.866e-29   2.571e-29   -28.163   -28.590    -0.427     (0)  
   FeF+            1.794e-29   1.404e-29   -28.746   -28.853    -0.107     (0)  
   AlF2+           2.883e-31   2.255e-31   -30.540   -30.647    -0.107     (0)  
   AlF+2           4.602e-36   1.723e-36   -35.337   -35.764    -0.427     (0)  
Fe(2)         5.340e-26
   FeOH+           5.335e-26   4.174e-26   -25.273   -25.379    -0.107     (0)  
   Fe+2            2.474e-29   5.235e-30   -28.607   -29.281    -0.674    -19.11
   FeF+            1.794e-29   1.404e-29   -28.746   -28.853    -0.107     (0)  
   FeCl+           1.729e-31   1.353e-31   -30.762   -30.869    -0.107     (0)  
Fe(3)         1.549e-02
   Fe(OH)4-        1.549e-02   1.211e-02    -1.810    -1.917    -0.107     (0)  
   Fe(OH)3         3.563e-07   4.420e-07    -6.448    -6.355     0.094     (0)  
   Fe(OH)2+        1.485e-13   1.162e-13   -12.828   -12.935    -0.107     (0)  
   FeF3            8.696e-23   1.079e-22   -22.061   -21.967     0.094     (0)  
   FeOH+2          3.081e-23   1.154e-23   -22.511   -22.938    -0.427     (0)  
   FeF2+           3.302e-25   2.583e-25   -24.481   -24.588    -0.107     (0)  
   FeF+2           6.866e-29   2.571e-29   -28.163   -28.590    -0.427     (0)  
   Fe+3            9.087e-34   6.539e-35   -33.042   -34.184    -1.143     (0)  
   FeCl+2          8.402e-35   3.146e-35   -34.076   -34.502    -0.427     (0)  
   FeCl2+          3.951e-36   3.091e-36   -35.403   -35.510    -0.107     (0)  
   FeCl3           4.663e-39   5.785e-39   -38.331   -38.238     0.094     (0)  
   Fe2(OH)2+4      0.000e+00   0.000e+00   -42.648   -44.354    -1.706     (0)  
   Fe3(OH)4+5      0.000e+00   0.000e+00   -52.099   -54.766    -2.666     (0)  
H(0)          0.000e+00
   H2              0.000e+00   0.000e+00   -46.863   -46.769     0.094     20.00
Mn(2)         4.718e-01
   MnOH+           4.676e-01   3.658e-01    -0.330    -0.437    -0.107     (0)  
   Mn+2            2.761e-03   5.843e-04    -2.559    -3.233    -0.674    -13.51
   MnF+            1.386e-03   1.084e-03    -2.858    -2.965    -0.107     (0)  
   MnCl+           5.696e-05   4.456e-05    -4.244    -4.351    -0.107     (0)  
   MnCl2           2.935e-07   3.641e-07    -6.532    -6.439     0.094     (0)  
   MnCl3-          2.399e-09   1.877e-09    -8.620    -8.727    -0.107     (0)  
Mn(3)         1.354e-20
   Mn+3            1.354e-20   1.485e-21   -19.868   -20.828    -0.960     (0)  
Na            4.996e-01
   Na+             4.588e-01   3.282e-01    -0.338    -0.484    -0.146     -0.76
   NaF             4.081e-02   5.063e-02    -1.389    -1.296     0.094     (0)  
   NaOH            6.669e-12   8.273e-12   -11.176   -11.082     0.094     (0)  
O(0)          4.918e-01
   O2              2.459e-01   3.051e-01    -0.609    -0.516     0.094     35.00

------------------------------Saturation indices-------------------------------

	Phase               SI   log IAP   log K(293 K,   1 atm)

	Al(OH)3(a)      -12.61     -1.48   11.13  Al(OH)3
	Fe(OH)3(a)        1.62      6.52    4.89  Fe(OH)3
	Gibbsite         -9.87     -1.48    8.40  Al(OH)3
	Goethite          7.35      6.53   -0.82  FeOOH
	H2(g)           -43.68    -46.77   -3.09  H2
	H2O(g)           -1.65     -0.02    1.63  H2O
	Halite           -3.78     -2.21    1.57  NaCl
	Hausmannite      53.08    115.37   62.29  Mn3O4
	Hematite         16.70     13.08   -3.62  Fe2O3
	Manganite        20.38     45.72   25.34  MnOOH
	O2(g)             2.34     -0.52   -2.85  O2
	Pyrochroite       8.70     23.90   15.20  Mn(OH)2
	Pyrolusite       25.33     67.52   42.19  MnO2:H2O


------------------
End of simulation.
------------------

------------------------------------
Reading input data for simulation 2.
------------------------------------

-----------
End of run.
-----------

