   Input file: surf_kin_related_pz
  Output file: surf_kin_related_pz.out
Database file: ../database/pitzer.dat

------------------
Reading data base.
------------------

	SOLUTION_MASTER_SPECIES
	SOLUTION_SPECIES
	PHASES
	PITZER
	EXCHANGE_MASTER_SPECIES
	EXCHANGE_SPECIES
	SURFACE_MASTER_SPECIES
	SURFACE_SPECIES
	END
------------------------------------
Reading input data for simulation 1.
------------------------------------

	DATABASE ../database/pitzer.dat
	RATES
	Gypsum
		start
	20      rem   1 hour half life
	40	moles = log(0.5) / 3600 * m * time
	50      if (moles > m) then moles = m
	60      rem print -moles
	200	save -moles
		end
	SOLUTION 1
		pH	7.0
		pe	8.0
		temp	20.0
		Ca	4.5	charge
		S	9.0	Gypsum
	SOLUTION 0 # CaCl2 injected solution
		pH	6.0
		pe	0.0
		temp	20.0
		Ca	15.
		Cl	31.	charge
	SURFACE 1
		Hfo_wOH    gypsum  		kine	0.1
		Hfo_sOH    gypsum  		kine	.01	500
	KINETICS 1
		Gypsum
			formula CaSO4(H2O)2
			m	1
		steps	3600
	USE solution 0
	END
-------------------------------------------
Beginning of initial solution calculations.
-------------------------------------------

Initial solution 0.	

-----------------------------Solution composition------------------------------

	Elements           Molality       Moles

	Ca                1.500e-02   1.500e-02
	Cl                3.000e-02   3.000e-02  Charge balance

----------------------------Description of solution----------------------------

                                       pH  =   6.000    
                                       pe  =   0.000    
                        Activity of water  =   0.999
                           Ionic strength  =   4.500e-02
                       Mass of water (kg)  =   1.000e+00
                 Total alkalinity (eq/kg)  =  -1.185e-06
                    Total carbon (mol/kg)  =   0.000e+00
                       Total CO2 (mol/kg)  =   0.000e+00
                      Temperature (deg C)  =  20.000
                  Electrical balance (eq)  =  -9.331e-11
 Percent error, 100*(Cat-|An|)/(Cat+|An|)  =   0.00
                               Iterations  =  13
                         Gamma iterations  =   3
                      Osmotic coefficient  =   0.89592
                         Density of water  =   0.99823
                                  Total H  = 1.110124e+02
                                  Total O  = 5.550622e+01

----------------------------Distribution of species----------------------------

                                                           MacInnes   MacInnes
	                               MacInnes    Log       Log         Log 
   Species                 Molality    Activity  Molality  Activity     Gamma

   H+                     1.194e-06   1.000e-06    -5.923    -6.000    -0.077
   OH-                    9.161e-09   6.837e-09    -8.038    -8.165    -0.127
   H2O                    5.551e+01   9.993e-01     1.744     0.000     0.000
Ca               1.500e-02
   Ca+2                   1.500e-02   7.368e-03    -1.824    -2.133    -0.309
Cl               3.000e-02
   Cl-                    3.000e-02   2.468e-02    -1.523    -1.608    -0.085

------------------------------Saturation indices-------------------------------

	Phase               SI log IAP  log KT

	H2O(g)           -1.64    0.00    1.64  H2O
	Portlandite     -13.27  -18.46   -5.19  Ca(OH)2

Initial solution 1.	

-----------------------------Solution composition------------------------------

	Elements           Molality       Moles

	Ca                1.493e-02   1.493e-02  Charge balance
	S                 1.493e-02   1.493e-02  Equilibrium with Gypsum

----------------------------Description of solution----------------------------

                                       pH  =   7.000    
                                       pe  =   8.000    
                        Activity of water  =   1.000
                           Ionic strength  =   5.970e-02
                       Mass of water (kg)  =   1.000e+00
                 Total alkalinity (eq/kg)  =  -7.764e-08
                    Total carbon (mol/kg)  =   0.000e+00
                       Total CO2 (mol/kg)  =   0.000e+00
                      Temperature (deg C)  =  20.000
                  Electrical balance (eq)  =  -1.049e-10
 Percent error, 100*(Cat-|An|)/(Cat+|An|)  =   0.00
                               Iterations  =  12
                         Gamma iterations  =   5
                      Osmotic coefficient  =   0.69952
                         Density of water  =   0.99823
                                  Total H  = 1.110124e+02
                                  Total O  = 5.556592e+01

----------------------------Distribution of species----------------------------

                                                           MacInnes   MacInnes
	                               MacInnes    Log       Log         Log 
   Species                 Molality    Activity  Molality  Activity     Gamma

   H+                     1.216e-07   1.000e-07    -6.915    -7.000    -0.085
   OH-                    9.272e-08   6.839e-08    -7.033    -7.165    -0.132
   H2O                    5.551e+01   9.996e-01     1.744     0.000     0.000
Ca               1.493e-02
   Ca+2                   1.493e-02   5.455e-03    -1.826    -2.263    -0.437
S(6)             1.493e-02
   SO4-2                  1.493e-02   4.806e-03    -1.826    -2.318    -0.492
   HSO4-                  4.878e-08   3.989e-08    -7.312    -7.399    -0.087

------------------------------Saturation indices-------------------------------

	Phase               SI log IAP  log KT

	Anhydrite        -0.25   -4.58   -4.33  CaSO4
	Gypsum            0.00   -4.58   -4.58  CaSO4:2H2O
	H2O(g)           -1.64    0.00    1.64  H2O
	Portlandite     -11.40  -16.59   -5.19  Ca(OH)2

-----------------------------------------
Beginning of batch-reaction calculations.
-----------------------------------------

Reaction step 1.

Using solution 0.	
Using surface 1.	
Using kinetics 1.	Kinetics defined in simulation 1.

Kinetics 1.	Kinetics defined in simulation 1.

	Time step: 3600 seconds

	Rate name       Delta Moles Total Moles   Reactant        Coefficient

	Gypsum           -5.000e-01   5.000e-01   CaSO4(H2O)2               1

------------------------------Surface composition------------------------------

Hfo           
	  1.907e-04  Surface charge, eq
	  7.359e-02  sigma, C/m**2
	  2.215e-02  psi, V
	 -8.767e-01  -F*psi/RT
	  4.162e-01  exp(-F*psi/RT)
	  5.000e+02  specific area, m**2/mol Gypsum
	  2.500e+02  m**2 for   5.000e-01 moles of Gypsum


Hfo_s         
	  5.000e-03  moles	[0.01 mol/(mol kinetic reactant Gypsum)]
	                                   Mole                     Log
	Species               Moles    Fraction    Molality    Molality

	Hfo_sOHCa+2       4.991e-03       0.998   4.903e-03      -2.310
	Hfo_sOH           5.686e-06       0.001   5.585e-06      -5.253
	Hfo_sOH2+         2.598e-06       0.001   2.552e-06      -5.593
	Hfo_sO-           2.851e-07       0.000   2.800e-07      -6.553

Hfo_w         
	  5.000e-02  moles	[0.1 mol/(mol kinetic reactant Gypsum)]
	                                   Mole                     Log
	Species               Moles    Fraction    Molality    Molality

	Hfo_wOH           1.708e-02       0.342   1.677e-02      -1.775
	Hfo_wOHSO4-2      1.184e-02       0.237   1.163e-02      -1.934
	Hfo_wOCa+         9.684e-03       0.194   9.512e-03      -2.022
	Hfo_wOH2+         7.802e-03       0.156   7.664e-03      -2.116
	Hfo_wSO4-         2.737e-03       0.055   2.688e-03      -2.571
	Hfo_wO-           8.563e-04       0.017   8.411e-04      -3.075

-----------------------------Solution composition------------------------------

	Elements           Molality       Moles

	Ca                4.914e-01   5.003e-01
	Cl                2.947e-02   3.000e-02
	S                 4.768e-01   4.854e-01

----------------------------Description of solution----------------------------

                                       pH  =   7.249      Charge balance
                                       pe  =   0.000      Adjusted to redox equilibrium
                        Activity of water  =   0.991
                           Ionic strength  =   1.951e+00
                       Mass of water (kg)  =   1.018e+00
                 Total alkalinity (eq/kg)  =   2.740e-07
                    Total carbon (mol/kg)  =   0.000e+00
                       Total CO2 (mol/kg)  =   0.000e+00
                      Temperature (deg C)  =  20.000
                  Electrical balance (eq)  =  -1.907e-04
 Percent error, 100*(Cat-|An|)/(Cat+|An|)  =  -0.01
                               Iterations  = 496
                         Gamma iterations  =   1
                      Osmotic coefficient  =   0.50659
                         Density of water  =   0.99823
                                  Total H  = 1.130179e+02
                                  Total O  = 5.845063e+01

----------------------------Distribution of species----------------------------

                                                           MacInnes   MacInnes
	                               MacInnes    Log       Log         Log 
   Species                 Molality    Activity  Molality  Activity     Gamma

   OH-                    5.225e-07   1.204e-07    -6.282    -6.919    -0.637
   H+                     9.903e-08   5.631e-08    -7.004    -7.249    -0.245
   H2O                    5.551e+01   9.909e-01     1.744    -0.004     0.000
Ca               4.914e-01
   Ca+2                   4.914e-01   5.432e-02    -0.309    -1.265    -0.957
Cl               2.947e-02
   Cl-                    2.947e-02   1.681e-02    -1.531    -1.774    -0.244
S(6)             4.768e-01
   SO4-2                  4.768e-01   1.948e-02    -0.322    -1.710    -1.389
   HSO4-                  1.495e-07   9.104e-08    -6.825    -7.041    -0.215

------------------------------Saturation indices-------------------------------

	Phase               SI log IAP  log KT

	Anhydrite         1.36   -2.98   -4.33  CaSO4
	Gypsum            1.60   -2.98   -4.58  CaSO4:2H2O
	H2O(g)           -1.65    0.00    1.64  H2O
	Portlandite      -9.91  -15.10   -5.19  Ca(OH)2

------------------
End of simulation.
------------------

------------------------------------
Reading input data for simulation 2.
------------------------------------

-----------
End of run.
-----------

