WARNING: Database file from DATABASE keyword is used; command line argument ignored.
   Input file: surf_related_warnings
  Output file: surf_related_warnings.out
Database file: ../database/phreeqc.dat

------------------
Reading data base.
------------------

	SOLUTION_MASTER_SPECIES
	SOLUTION_SPECIES
	PHASES
	EXCHANGE_MASTER_SPECIES
	EXCHANGE_SPECIES
	SURFACE_MASTER_SPECIES
	SURFACE_SPECIES
	RATES
	END
------------------------------------
Reading input data for simulation 1.
------------------------------------

	DATABASE ../database/phreeqc.dat
	SELECTED_OUTPUT 101
	    file                 surf_related_warnings_101.sel
	USER_PUNCH 101
	    headings Mu SC
	    start
	10 PUNCH STR_F$(MU, 20, 12)
	20 PUNCH STR_F$(SC, 20, 10)
	    end
	EQUILIBRIUM_PHASES 1 
	 Goethite 0 .1 
	SOLUTION 1 
	 Na 1
	 Cl 1 
	SAVE solution 1
	USER_PRINT
	 10 print sys("Cl"), sys("H"), sys("H") - get(1)
	 20 put(sys("H"), 1)
	END
-------------------------------------------
Beginning of initial solution calculations.
-------------------------------------------

Initial solution 1.	

----------------------------------User print-----------------------------------

  1.0000e-03   1.1101e+02   1.1101e+02 

-----------------------------Solution composition------------------------------

	Elements           Molality       Moles

	Cl                1.000e-03   1.000e-03
	Na                1.000e-03   1.000e-03

----------------------------Description of solution----------------------------

                                       pH  =   7.000    
                                       pe  =   4.000    
      Specific Conductance (µS/cm,  25°C)  = 123
                          Density (g/cm³)  =   0.99708
                               Volume (L)  =   1.00298
                        Activity of water  =   1.000
                 Ionic strength (mol/kgw)  =   1.000e-03
                       Mass of water (kg)  =   1.000e+00
                 Total alkalinity (eq/kg)  =   1.451e-09
                    Total carbon (mol/kg)  =   0.000e+00
                       Total CO2 (mol/kg)  =   0.000e+00
                         Temperature (°C)  =  25.00
                  Electrical balance (eq)  =  -1.451e-09
 Percent error, 100*(Cat-|An|)/(Cat+|An|)  =  -0.00
                               Iterations  =   3
                                  Total H  = 1.110124e+02
                                  Total O  = 5.550622e+01

----------------------------Distribution of species----------------------------

                                               Log       Log       Log    mole V
   Species          Molality    Activity  Molality  Activity     Gamma   cm³/mol

   OH-             1.049e-07   1.012e-07    -6.979    -6.995    -0.016     -4.11
   H+              1.035e-07   1.000e-07    -6.985    -7.000    -0.015      0.00
   H2O             5.551e+01   1.000e+00     1.744    -0.000     0.000     18.07
Cl            1.000e-03
   Cl-             1.000e-03   9.649e-04    -3.000    -3.016    -0.016     18.07
H(0)          1.416e-25
   H2              7.078e-26   7.079e-26   -25.150   -25.150     0.000     28.61
Na            1.000e-03
   Na+             1.000e-03   9.652e-04    -3.000    -3.015    -0.015     -1.48
   NaOH            9.767e-21   9.769e-21   -20.010   -20.010     0.000     (0)  
O(0)          0.000e+00
   O2              0.000e+00   0.000e+00   -42.080   -42.080     0.000     30.40

------------------------------Saturation indices-------------------------------

  Phase               SI** log IAP   log K(298 K,   1 atm)

  H2(g)           -22.05    -25.15   -3.10  H2
  H2O(g)           -1.50     -0.00    1.50  H2O
  Halite           -7.60     -6.03    1.57  NaCl
  O2(g)           -39.19    -42.08   -2.89  O2

**For a gas, SI = log10(fugacity). Fugacity = pressure * phi / 1 atm.
  For ideal gases, phi = 1.

-----------------------------------------
Beginning of batch-reaction calculations.
-----------------------------------------

Reaction step 1.

WARNING: Maximum iterations exceeded, 100

WARNING: Numerical method failed with this set of convergence parameters.

WARNING: Trying smaller step size, pe step size 10, 5 ... 

WARNING: Maximum iterations exceeded, 200

WARNING: Numerical method failed with this set of convergence parameters.

WARNING: Trying reduced tolerance 1e-16 ...

Using solution 1.	
Using pure phase assemblage 1.	

----------------------------------User print-----------------------------------

  1.0000e-03   1.1111e+02   1.0000e-01 

-------------------------------Phase assemblage--------------------------------

                                                      Moles in assemblage
Phase               SI  log IAP  log K(T, P)   Initial       Final       Delta

Goethite         -0.00    -1.00     -1.00    1.000e-01   1.000e-01   9.995e-11

-----------------------------Solution composition------------------------------

	Elements           Molality       Moles

	Cl                1.000e-03   1.000e-03
	Fe                5.132e-14   5.132e-14
	Na                1.000e-03   1.000e-03

----------------------------Description of solution----------------------------

                                       pH  =   7.000      Charge balance
                                       pe  =   5.946      Adjusted to redox equilibrium
      Specific Conductance (µS/cm,  25°C)  = 123
                          Density (g/cm³)  =   0.99708
                               Volume (L)  =   1.00298
                        Activity of water  =   1.000
                 Ionic strength (mol/kgw)  =   1.000e-03
                       Mass of water (kg)  =   1.000e+00
                 Total alkalinity (eq/kg)  =   1.451e-09
                    Total carbon (mol/kg)  =   0.000e+00
                       Total CO2 (mol/kg)  =   0.000e+00
                         Temperature (°C)  =  25.00
                  Electrical balance (eq)  =  -1.451e-09
 Percent error, 100*(Cat-|An|)/(Cat+|An|)  =  -0.00
                               Iterations  =  15
                                  Total H  = 1.110124e+02
                                  Total O  = 5.550622e+01

----------------------------Distribution of species----------------------------

                                               Log       Log       Log    mole V
   Species          Molality    Activity  Molality  Activity     Gamma   cm³/mol

   OH-             1.049e-07   1.012e-07    -6.979    -6.995    -0.016     -4.11
   H+              1.035e-07   1.000e-07    -6.985    -7.000    -0.015      0.00
   H2O             5.551e+01   1.000e+00     1.744    -0.000     0.000     18.07
Cl            1.000e-03
   Cl-             1.000e-03   9.649e-04    -3.000    -3.016    -0.016     18.07
   FeCl+           1.635e-18   1.578e-18   -17.786   -17.802    -0.015     (0)  
   FeCl+2          3.356e-24   2.914e-24   -23.474   -23.535    -0.061     (0)  
   FeCl2+          1.301e-26   1.256e-26   -25.886   -25.901    -0.015     (0)  
   FeCl3           1.212e-30   1.212e-30   -29.917   -29.917     0.000     (0)  
Fe(2)         1.368e-15
   Fe+2            1.363e-15   1.185e-15   -14.866   -14.926    -0.061    -22.14
   FeOH+           3.881e-18   3.746e-18   -17.411   -17.426    -0.015     (0)  
   FeCl+           1.635e-18   1.578e-18   -17.786   -17.802    -0.015     (0)  
   Fe(OH)2         3.188e-22   3.188e-22   -21.497   -21.496     0.000     (0)  
   Fe(OH)3-        1.227e-25   1.185e-25   -24.911   -24.926    -0.015     (0)  
Fe(3)         4.995e-14
   Fe(OH)3         2.754e-14   2.754e-14   -13.560   -13.560     0.000     (0)  
   Fe(OH)2+        2.214e-14   2.138e-14   -13.655   -13.670    -0.015     (0)  
   Fe(OH)4-        2.602e-16   2.512e-16   -15.585   -15.600    -0.015     (0)  
   FeOH+2          7.436e-18   6.457e-18   -17.129   -17.190    -0.061     (0)  
   Fe+3            1.358e-22   1.000e-22   -21.867   -22.000    -0.133     (0)  
   FeCl+2          3.356e-24   2.914e-24   -23.474   -23.535    -0.061     (0)  
   FeCl2+          1.301e-26   1.256e-26   -25.886   -25.901    -0.015     (0)  
   FeCl3           1.212e-30   1.212e-30   -29.917   -29.917     0.000     (0)  
   Fe2(OH)2+4      1.985e-33   1.122e-33   -32.702   -32.950    -0.248     (0)  
   Fe3(OH)4+5      0.000e+00   0.000e+00   -43.913   -44.300    -0.387     (0)  
H(0)          1.812e-29
   H2              9.058e-30   9.060e-30   -29.043   -29.043     0.000     28.61
Na            1.000e-03
   Na+             1.000e-03   9.652e-04    -3.000    -3.015    -0.015     -1.48
   NaOH            9.767e-21   9.769e-21   -20.010   -20.010     0.000     (0)  
O(0)          1.015e-34
   O2              5.077e-35   5.078e-35   -34.294   -34.294     0.000     30.40

------------------------------Saturation indices-------------------------------

  Phase               SI** log IAP   log K(298 K,   1 atm)

  Fe(OH)3(a)       -5.89     -1.00    4.89  Fe(OH)3
  Goethite         -0.00     -1.00   -1.00  FeOOH
  H2(g)           -25.94    -29.04   -3.10  H2
  H2O(g)           -1.50     -0.00    1.50  H2O
  Halite           -7.60     -6.03    1.57  NaCl
  Hematite          2.01     -2.00   -4.01  Fe2O3
  O2(g)           -31.40    -34.29   -2.89  O2

**For a gas, SI = log10(fugacity). Fugacity = pressure * phi / 1 atm.
  For ideal gases, phi = 1.

------------------
End of simulation.
------------------

------------------------------------
Reading input data for simulation 2.
------------------------------------

	SURFACE 1 
	 Hfo_wOH Goethite 1e-2 2e3 
	 donnan # can be added, wonderful! 
	 equilibrate 1
	END
------------------------------------------------------
Beginning of initial surface-composition calculations.
------------------------------------------------------

Surface 1.	

Diffuse Double Layer Surface-Complexation Model

Hfo           
	 -5.834e-15  Surface + diffuse layer charge, eq
	  1.234e-05  Surface charge, eq
	  5.953e-03  sigma, C/m²
	  6.430e-02  psi, V
	 -2.503e+00  -F*psi/RT
	  8.186e-02  exp(-F*psi/RT)
	  2.000e+03  specific area, m²/mol Goethite
	  2.000e+02  m² for   1.000e-01 moles of Goethite

	Water in diffuse layer: 2.000e-03 kg, 100.0% of total DDL-water.

	Total moles in diffuse layer (excluding water), Donnan calculation.
	Donnan Layer potential, psi_DL =  4.740e-02 V.
	Boltzmann factor, exp(-psi_DL * F / RT) = 1.581e-01 (= c_DL / c_free if z is +1).

	Element       	     Moles
	Cl            	  1.2654e-05
	Fe            	  6.5432e-17
	H             	  1.3601e-09
	Na            	  3.1611e-07
	O             	  1.3274e-09

Hfo_w         
	  1.000e-03  moles	[0.01 mol/(mol Goethite)]
	                                   Mole                     Log
	Species               Moles    Fraction    Molality    Molality

	Hfo_wOH           7.674e-04       0.767   7.674e-04      -3.115
	Hfo_wOH2+         1.225e-04       0.122   1.225e-04      -3.912
	Hfo_wO-           1.101e-04       0.110   1.101e-04      -3.958
	Hfo_wOFe+         7.792e-16       0.000   7.792e-16     -15.108
	Hfo_wOFeOH        2.562e-16       0.000   2.562e-16     -15.591

------------------
End of simulation.
------------------

------------------------------------
Reading input data for simulation 3.
------------------------------------

	USE solution 1
	USE surface 1
	USE equilibrium_phases 1
	Reaction
		HCl 1
		5
	END 
-----------------------------------------
Beginning of batch-reaction calculations.
-----------------------------------------

Reaction step 1.

Using solution 1.	Solution after simulation 1.
Using surface 1.	
Using pure phase assemblage 1.	
Using reaction 1.	

Reaction 1.	

	  5.000e+00 moles of the following reaction have been added:

	                 Relative
	Reactant            moles

	HCl                  1.00000

	                 Relative
	Element             moles
	Cl                   1.00000
	H                    1.00000

----------------------------------User print-----------------------------------

  5.0010e+00   1.1611e+02   5.0000e+00 

-------------------------------Phase assemblage--------------------------------

                                                      Moles in assemblage
Phase               SI  log IAP  log K(T, P)   Initial       Final       Delta

Goethite         -5.17    -6.17     -1.00    1.000e-01           0  -1.000e-01

------------------------------Surface composition------------------------------

Diffuse Double Layer Surface-Complexation Model

Hfo           
	  5.373e-26  Surface + diffuse layer charge, eq
	  5.373e-26  Surface charge, eq
	undefined  sigma, C/m²
	 -3.782e-01  psi, V
	  1.472e+01  -F*psi/RT
	  2.472e+06  exp(-F*psi/RT)
	  2.000e+03  specific area, m²/mol Goethite
	  0.000e+00  m² for   0.000e+00 moles of Goethite

	Water in diffuse layer: 0.000e+00 kg,  0.0% of total DDL-water.

Hfo_w         
	  0.000e+00  moles	[0.01 mol/(mol Goethite)]
	                                   Mole                     Log
	Species               Moles    Fraction    Molality    Molality

	Hfo_wOH2+         5.373e-26       0.000   5.353e-26     -25.271
	Hfo_wOH           3.358e-40       0.000   3.346e-40     -39.475
	Hfo_wOFe+         2.330e-48       0.000   2.322e-48     -47.634
	Hfo_wO-           4.808e-56       0.000   4.791e-56     -55.320
	Hfo_wOFeOH        6.397e-64       0.000   6.374e-64     -63.196

-----------------------------Solution composition------------------------------

	Elements           Molality       Moles

	Cl                4.983e+00   5.001e+00
	Fe                9.964e-02   1.000e-01
	Na                9.967e-04   1.000e-03

----------------------------Description of solution----------------------------

                                       pH  =  -0.521      Charge balance
                                       pe  =  19.614      Adjusted to redox equilibrium
      Specific Conductance (µS/cm,  25°C)  = 883671
                          Density (g/cm³)  =   1.08031
                               Volume (L)  =   1.10269
                        Activity of water  =   0.837
                 Ionic strength (mol/kgw)  =   4.841e+00
                       Mass of water (kg)  =   1.004e+00
                 Total alkalinity (eq/kg)  =  -4.882e+00
                    Total carbon (mol/kg)  =   0.000e+00
                       Total CO2 (mol/kg)  =   0.000e+00
                         Temperature (°C)  =  25.00
                  Electrical balance (eq)  =  -1.448e-09
 Percent error, 100*(Cat-|An|)/(Cat+|An|)  =  -0.00
                               Iterations  =   1
                                  Total H  = 1.161124e+02
                                  Total O  = 5.570622e+01

----------------------------Distribution of species----------------------------

                                               Log       Log       Log    mole V
   Species          Molality    Activity  Molality  Activity     Gamma   cm³/mol

   H+              4.683e+00   3.319e+00     0.671     0.521    -0.150      0.00
   OH-             5.307e-15   2.552e-15   -14.275   -14.593    -0.318      3.21
   H2O             5.551e+01   8.369e-01     1.744    -0.077     0.000     18.07
Cl            4.983e+00
   Cl-             4.810e+00   2.849e+00     0.682     0.455    -0.227     19.91
   FeCl2+          6.703e-02   3.829e-02    -1.174    -1.417    -0.243     (0)  
   FeCl+2          2.826e-02   3.008e-03    -1.549    -2.522    -0.973     (0)  
   FeCl3           3.579e-03   1.091e-02    -2.446    -1.962     0.484     (0)  
   FeCl+           1.426e-11   3.499e-11   -10.846   -10.456     0.390     (0)  
Fe(2)         7.597e-11
   Fe+2            6.171e-11   8.897e-12   -10.210   -11.051    -0.841    -18.16
   FeCl+           1.426e-11   3.499e-11   -10.846   -10.456     0.390     (0)  
   FeOH+           1.242e-21   7.094e-22   -20.906   -21.149    -0.243     (0)  
   Fe(OH)2         4.995e-34   1.523e-33   -33.301   -32.817     0.484     (0)  
   Fe(OH)3-        0.000e+00   0.000e+00   -43.603   -43.846    -0.243     (0)  
Fe(3)         9.964e-02
   FeCl2+          6.703e-02   3.829e-02    -1.174    -1.417    -0.243     (0)  
   FeCl+2          2.826e-02   3.008e-03    -1.549    -2.522    -0.973     (0)  
   FeCl3           3.579e-03   1.091e-02    -2.446    -1.962     0.484     (0)  
   Fe+3            7.749e-04   3.496e-05    -3.111    -4.456    -1.346     (0)  
   FeOH+2          5.346e-07   5.691e-08    -6.272    -7.245    -0.973     (0)  
   Fe(OH)2+        8.049e-12   4.752e-12   -11.094   -11.323    -0.229     (0)  
   Fe(OH)3         5.064e-20   1.544e-19   -19.296   -18.811     0.484     (0)  
   Fe2(OH)2+4      5.017e-20   8.717e-14   -19.300   -13.060     6.240     (0)  
   Fe(OH)4-        6.013e-29   3.550e-29   -28.221   -28.450    -0.229     (0)  
   Fe3(OH)4+5      1.539e-32   8.654e-23   -31.813   -22.063     9.750     (0)  
H(0)          0.000e+00
   H2              0.000e+00   0.000e+00   -41.821   -41.337     0.484     28.61
Na            9.967e-04
   Na+             9.967e-04   1.292e-03    -3.001    -2.889     0.113      0.98
   NaOH            1.082e-28   3.298e-28   -27.966   -27.482     0.484     (0)  
O(0)          9.024e-11
   O2              4.512e-11   1.375e-10   -10.346    -9.862     0.484     30.40

------------------------------Saturation indices-------------------------------

  Phase               SI** log IAP   log K(298 K,   1 atm)

  Fe(OH)3(a)      -11.14     -6.25    4.89  Fe(OH)3
  Goethite         -5.17     -6.17   -1.00  FeOOH
  H2(g)           -38.24    -41.34   -3.10  H2
  H2O(g)           -1.58     -0.08    1.50  H2O
  Halite           -4.00     -2.43    1.57  NaCl
  Hematite         -8.26    -12.27   -4.01  Fe2O3
  O2(g)            -6.97     -9.86   -2.89  O2

**For a gas, SI = log10(fugacity). Fugacity = pressure * phi / 1 atm.
  For ideal gases, phi = 1.

------------------
End of simulation.
------------------

------------------------------------
Reading input data for simulation 4.
------------------------------------

	EQUILIBRIUM_PHASES 1 
	 Goethite 0 .1 
	SOLUTION 1 
	 Na 1
	 Cl 1 
	SAVE solution 1
	USER_PRINT
	 10 print sys("Cl"), sys("H"), sys("H") - get(1)
	 20 put(sys("H"), 1)
	END
-------------------------------------------
Beginning of initial solution calculations.
-------------------------------------------

Initial solution 1.	

----------------------------------User print-----------------------------------

  1.0000e-03   1.1101e+02  -5.1000e+00 

-----------------------------Solution composition------------------------------

	Elements           Molality       Moles

	Cl                1.000e-03   1.000e-03
	Na                1.000e-03   1.000e-03

----------------------------Description of solution----------------------------

                                       pH  =   7.000    
                                       pe  =   4.000    
      Specific Conductance (µS/cm,  25°C)  = 123
                          Density (g/cm³)  =   0.99708
                               Volume (L)  =   1.00298
                        Activity of water  =   1.000
                 Ionic strength (mol/kgw)  =   1.000e-03
                       Mass of water (kg)  =   1.000e+00
                 Total alkalinity (eq/kg)  =   1.451e-09
                    Total carbon (mol/kg)  =   0.000e+00
                       Total CO2 (mol/kg)  =   0.000e+00
                         Temperature (°C)  =  25.00
                  Electrical balance (eq)  =  -1.451e-09
 Percent error, 100*(Cat-|An|)/(Cat+|An|)  =  -0.00
                               Iterations  =   3
                                  Total H  = 1.110124e+02
                                  Total O  = 5.550622e+01

----------------------------Distribution of species----------------------------

                                               Log       Log       Log    mole V
   Species          Molality    Activity  Molality  Activity     Gamma   cm³/mol

   OH-             1.049e-07   1.012e-07    -6.979    -6.995    -0.016     -4.11
   H+              1.035e-07   1.000e-07    -6.985    -7.000    -0.015      0.00
   H2O             5.551e+01   1.000e+00     1.744    -0.000     0.000     18.07
Cl            1.000e-03
   Cl-             1.000e-03   9.649e-04    -3.000    -3.016    -0.016     18.07
H(0)          1.416e-25
   H2              7.078e-26   7.079e-26   -25.150   -25.150     0.000     28.61
Na            1.000e-03
   Na+             1.000e-03   9.652e-04    -3.000    -3.015    -0.015     -1.48
   NaOH            9.767e-21   9.769e-21   -20.010   -20.010     0.000     (0)  
O(0)          0.000e+00
   O2              0.000e+00   0.000e+00   -42.080   -42.080     0.000     30.40

------------------------------Saturation indices-------------------------------

  Phase               SI** log IAP   log K(298 K,   1 atm)

  H2(g)           -22.05    -25.15   -3.10  H2
  H2O(g)           -1.50     -0.00    1.50  H2O
  Halite           -7.60     -6.03    1.57  NaCl
  O2(g)           -39.19    -42.08   -2.89  O2

**For a gas, SI = log10(fugacity). Fugacity = pressure * phi / 1 atm.
  For ideal gases, phi = 1.

-----------------------------------------
Beginning of batch-reaction calculations.
-----------------------------------------

Reaction step 1.

WARNING: Maximum iterations exceeded, 100

WARNING: Numerical method failed with this set of convergence parameters.

WARNING: Trying smaller step size, pe step size 10, 5 ... 

WARNING: Maximum iterations exceeded, 200

WARNING: Numerical method failed with this set of convergence parameters.

WARNING: Trying reduced tolerance 1e-16 ...

Using solution 1.	
Using pure phase assemblage 1.	

----------------------------------User print-----------------------------------

  1.0000e-03   1.1111e+02   1.0000e-01 

-------------------------------Phase assemblage--------------------------------

                                                      Moles in assemblage
Phase               SI  log IAP  log K(T, P)   Initial       Final       Delta

Goethite         -0.00    -1.00     -1.00    1.000e-01   1.000e-01   9.995e-11

-----------------------------Solution composition------------------------------

	Elements           Molality       Moles

	Cl                1.000e-03   1.000e-03
	Fe                5.132e-14   5.132e-14
	Na                1.000e-03   1.000e-03

----------------------------Description of solution----------------------------

                                       pH  =   7.000      Charge balance
                                       pe  =   5.946      Adjusted to redox equilibrium
      Specific Conductance (µS/cm,  25°C)  = 123
                          Density (g/cm³)  =   0.99708
                               Volume (L)  =   1.00298
                        Activity of water  =   1.000
                 Ionic strength (mol/kgw)  =   1.000e-03
                       Mass of water (kg)  =   1.000e+00
                 Total alkalinity (eq/kg)  =   1.451e-09
                    Total carbon (mol/kg)  =   0.000e+00
                       Total CO2 (mol/kg)  =   0.000e+00
                         Temperature (°C)  =  25.00
                  Electrical balance (eq)  =  -1.451e-09
 Percent error, 100*(Cat-|An|)/(Cat+|An|)  =  -0.00
                               Iterations  =  15
                                  Total H  = 1.110124e+02
                                  Total O  = 5.550622e+01

----------------------------Distribution of species----------------------------

                                               Log       Log       Log    mole V
   Species          Molality    Activity  Molality  Activity     Gamma   cm³/mol

   OH-             1.049e-07   1.012e-07    -6.979    -6.995    -0.016     -4.11
   H+              1.035e-07   1.000e-07    -6.985    -7.000    -0.015      0.00
   H2O             5.551e+01   1.000e+00     1.744    -0.000     0.000     18.07
Cl            1.000e-03
   Cl-             1.000e-03   9.649e-04    -3.000    -3.016    -0.016     18.07
   FeCl+           1.635e-18   1.578e-18   -17.786   -17.802    -0.015     (0)  
   FeCl+2          3.356e-24   2.914e-24   -23.474   -23.535    -0.061     (0)  
   FeCl2+          1.301e-26   1.256e-26   -25.886   -25.901    -0.015     (0)  
   FeCl3           1.212e-30   1.212e-30   -29.917   -29.917     0.000     (0)  
Fe(2)         1.368e-15
   Fe+2            1.363e-15   1.185e-15   -14.866   -14.926    -0.061    -22.14
   FeOH+           3.881e-18   3.746e-18   -17.411   -17.426    -0.015     (0)  
   FeCl+           1.635e-18   1.578e-18   -17.786   -17.802    -0.015     (0)  
   Fe(OH)2         3.188e-22   3.188e-22   -21.497   -21.496     0.000     (0)  
   Fe(OH)3-        1.227e-25   1.185e-25   -24.911   -24.926    -0.015     (0)  
Fe(3)         4.995e-14
   Fe(OH)3         2.754e-14   2.754e-14   -13.560   -13.560     0.000     (0)  
   Fe(OH)2+        2.214e-14   2.138e-14   -13.655   -13.670    -0.015     (0)  
   Fe(OH)4-        2.602e-16   2.512e-16   -15.585   -15.600    -0.015     (0)  
   FeOH+2          7.436e-18   6.457e-18   -17.129   -17.190    -0.061     (0)  
   Fe+3            1.358e-22   1.000e-22   -21.867   -22.000    -0.133     (0)  
   FeCl+2          3.356e-24   2.914e-24   -23.474   -23.535    -0.061     (0)  
   FeCl2+          1.301e-26   1.256e-26   -25.886   -25.901    -0.015     (0)  
   FeCl3           1.212e-30   1.212e-30   -29.917   -29.917     0.000     (0)  
   Fe2(OH)2+4      1.985e-33   1.122e-33   -32.702   -32.950    -0.248     (0)  
   Fe3(OH)4+5      0.000e+00   0.000e+00   -43.913   -44.300    -0.387     (0)  
H(0)          1.812e-29
   H2              9.058e-30   9.060e-30   -29.043   -29.043     0.000     28.61
Na            1.000e-03
   Na+             1.000e-03   9.652e-04    -3.000    -3.015    -0.015     -1.48
   NaOH            9.767e-21   9.769e-21   -20.010   -20.010     0.000     (0)  
O(0)          1.015e-34
   O2              5.077e-35   5.078e-35   -34.294   -34.294     0.000     30.40

------------------------------Saturation indices-------------------------------

  Phase               SI** log IAP   log K(298 K,   1 atm)

  Fe(OH)3(a)       -5.89     -1.00    4.89  Fe(OH)3
  Goethite         -0.00     -1.00   -1.00  FeOOH
  H2(g)           -25.94    -29.04   -3.10  H2
  H2O(g)           -1.50     -0.00    1.50  H2O
  Halite           -7.60     -6.03    1.57  NaCl
  Hematite          2.01     -2.00   -4.01  Fe2O3
  O2(g)           -31.40    -34.29   -2.89  O2

**For a gas, SI = log10(fugacity). Fugacity = pressure * phi / 1 atm.
  For ideal gases, phi = 1.

------------------
End of simulation.
------------------

------------------------------------
Reading input data for simulation 5.
------------------------------------

	SURFACE 1 
	 Hfo_w Goethite 1e-2 2e3 
	 donnan # can be added, wonderful! 
	 equilibrate 1
	END
WARNING: Suggest using master species formula in SURFACE 
	 for surface related to equilibrium_phase: Hfo_wOH.
------------------------------------------------------
Beginning of initial surface-composition calculations.
------------------------------------------------------

Surface 1.	

Diffuse Double Layer Surface-Complexation Model

Hfo           
	 -5.834e-15  Surface + diffuse layer charge, eq
	  1.234e-05  Surface charge, eq
	  5.953e-03  sigma, C/m²
	  6.430e-02  psi, V
	 -2.503e+00  -F*psi/RT
	  8.186e-02  exp(-F*psi/RT)
	  2.000e+03  specific area, m²/mol Goethite
	  2.000e+02  m² for   1.000e-01 moles of Goethite

	Water in diffuse layer: 2.000e-03 kg, 100.0% of total DDL-water.

	Total moles in diffuse layer (excluding water), Donnan calculation.
	Donnan Layer potential, psi_DL =  4.740e-02 V.
	Boltzmann factor, exp(-psi_DL * F / RT) = 1.581e-01 (= c_DL / c_free if z is +1).

	Element       	     Moles
	Cl            	  1.2654e-05
	Fe            	  6.5432e-17
	H             	  1.3601e-09
	Na            	  3.1611e-07
	O             	  1.3274e-09

Hfo_w         
	  1.000e-03  moles	[0.01 mol/(mol Goethite)]
	                                   Mole                     Log
	Species               Moles    Fraction    Molality    Molality

	Hfo_wOH           7.674e-04       0.767   7.674e-04      -3.115
	Hfo_wOH2+         1.225e-04       0.122   1.225e-04      -3.912
	Hfo_wO-           1.101e-04       0.110   1.101e-04      -3.958
	Hfo_wOFe+         7.792e-16       0.000   7.792e-16     -15.108
	Hfo_wOFeOH        2.562e-16       0.000   2.562e-16     -15.591

------------------
End of simulation.
------------------

------------------------------------
Reading input data for simulation 6.
------------------------------------

	USE solution 1
	USE surface 1
	USE equilibrium_phases 1
	Reaction
		HCl 1
		5
	END 
-----------------------------------------
Beginning of batch-reaction calculations.
-----------------------------------------

Reaction step 1.

Using solution 1.	Solution after simulation 4.
Using surface 1.	
Using pure phase assemblage 1.	
Using reaction 1.	

Reaction 1.	

	  5.000e+00 moles of the following reaction have been added:

	                 Relative
	Reactant            moles

	HCl                  1.00000

	                 Relative
	Element             moles
	Cl                   1.00000
	H                    1.00000

----------------------------------User print-----------------------------------

  5.0010e+00   1.1611e+02   5.0010e+00 

-------------------------------Phase assemblage--------------------------------

                                                      Moles in assemblage
Phase               SI  log IAP  log K(T, P)   Initial       Final       Delta

Goethite         -5.17    -6.17     -1.00    1.000e-01           0  -1.000e-01

------------------------------Surface composition------------------------------

Diffuse Double Layer Surface-Complexation Model

Hfo           
	  9.804e-26  Surface + diffuse layer charge, eq
	  9.804e-26  Surface charge, eq
	undefined  sigma, C/m²
	 -2.794e-01  psi, V
	  1.088e+01  -F*psi/RT
	  5.290e+04  exp(-F*psi/RT)
	  2.000e+03  specific area, m²/mol Goethite
	  0.000e+00  m² for   0.000e+00 moles of Goethite

	Water in diffuse layer: 0.000e+00 kg,  0.0% of total DDL-water.

Hfo_w         
	  0.000e+00  moles	[0.01 mol/(mol Goethite)]
	                                   Mole                     Log
	Species               Moles    Fraction    Molality    Molality

	Hfo_wOH2+         9.804e-26       0.000   9.769e-26     -25.010
	Hfo_wOH           2.864e-38       0.000   2.854e-38     -37.545
	Hfo_wOFe+         8.773e-50       0.000   8.742e-50     -49.058
	Hfo_wO-           1.917e-52       0.000   1.910e-52     -51.719
	Hfo_wOFeOH        1.126e-63       0.000   1.122e-63     -62.950

-----------------------------Solution composition------------------------------

	Elements           Molality       Moles

	Cl                4.983e+00   5.001e+00
	Fe                9.964e-02   1.000e-01
	Na                9.967e-04   1.000e-03

----------------------------Description of solution----------------------------

                                       pH  =  -0.521      Charge balance
                                       pe  =  21.300      Adjusted to redox equilibrium
      Specific Conductance (µS/cm,  25°C)  = 883667
                          Density (g/cm³)  =   1.08031
                               Volume (L)  =   1.10271
                        Activity of water  =   0.837
                 Ionic strength (mol/kgw)  =   4.841e+00
                       Mass of water (kg)  =   1.004e+00
                 Total alkalinity (eq/kg)  =  -4.882e+00
                    Total carbon (mol/kg)  =   0.000e+00
                       Total CO2 (mol/kg)  =   0.000e+00
                         Temperature (°C)  =  25.00
                  Electrical balance (eq)  =  -1.451e-09
 Percent error, 100*(Cat-|An|)/(Cat+|An|)  =  -0.00
                               Iterations  =   1
                                  Total H  = 1.161134e+02
                                  Total O  = 5.570722e+01

----------------------------Distribution of species----------------------------

                                               Log       Log       Log    mole V
   Species          Molality    Activity  Molality  Activity     Gamma   cm³/mol

   H+              4.683e+00   3.319e+00     0.671     0.521    -0.150      0.00
   OH-             5.307e-15   2.552e-15   -14.275   -14.593    -0.318      3.21
   H2O             5.551e+01   8.369e-01     1.744    -0.077     0.000     18.07
Cl            4.983e+00
   Cl-             4.810e+00   2.849e+00     0.682     0.455    -0.227     19.91
   FeCl2+          6.703e-02   3.829e-02    -1.174    -1.417    -0.243     (0)  
   FeCl+2          2.826e-02   3.008e-03    -1.549    -2.522    -0.973     (0)  
   FeCl3           3.579e-03   1.091e-02    -2.446    -1.962     0.484     (0)  
   FeCl+           2.941e-13   7.219e-13   -12.531   -12.141     0.390     (0)  
Fe(2)         1.567e-12
   Fe+2            1.273e-12   1.835e-13   -11.895   -12.736    -0.841    -18.16
   FeCl+           2.941e-13   7.219e-13   -12.531   -12.141     0.390     (0)  
   FeOH+           2.562e-23   1.464e-23   -22.591   -22.835    -0.243     (0)  
   Fe(OH)2         1.030e-35   3.141e-35   -34.987   -34.503     0.484     (0)  
   Fe(OH)3-        0.000e+00   0.000e+00   -45.288   -45.531    -0.243     (0)  
Fe(3)         9.964e-02
   FeCl2+          6.703e-02   3.829e-02    -1.174    -1.417    -0.243     (0)  
   FeCl+2          2.826e-02   3.008e-03    -1.549    -2.522    -0.973     (0)  
   FeCl3           3.579e-03   1.091e-02    -2.446    -1.962     0.484     (0)  
   Fe+3            7.749e-04   3.496e-05    -3.111    -4.456    -1.346     (0)  
   FeOH+2          5.347e-07   5.691e-08    -6.272    -7.245    -0.973     (0)  
   Fe(OH)2+        8.049e-12   4.752e-12   -11.094   -11.323    -0.229     (0)  
   Fe(OH)3         5.064e-20   1.544e-19   -19.296   -18.811     0.484     (0)  
   Fe2(OH)2+4      5.018e-20   8.717e-14   -19.299   -13.060     6.240     (0)  
   Fe(OH)4-        6.013e-29   3.550e-29   -28.221   -28.450    -0.229     (0)  
   Fe3(OH)4+5      1.540e-32   8.655e-23   -31.813   -22.063     9.750     (0)  
H(0)          0.000e+00
   H2              0.000e+00   0.000e+00   -45.192   -44.708     0.484     28.61
Na            9.967e-04
   Na+             9.967e-04   1.292e-03    -3.001    -2.889     0.113      0.98
   NaOH            1.082e-28   3.298e-28   -27.966   -27.482     0.484     (0)  
O(0)          4.982e-04
   O2              2.491e-04   7.593e-04    -3.604    -3.120     0.484     30.40

------------------------------Saturation indices-------------------------------

  Phase               SI** log IAP   log K(298 K,   1 atm)

  Fe(OH)3(a)      -11.14     -6.25    4.89  Fe(OH)3
  Goethite         -5.17     -6.17   -1.00  FeOOH
  H2(g)           -41.61    -44.71   -3.10  H2
  H2O(g)           -1.58     -0.08    1.50  H2O
  Halite           -4.00     -2.43    1.57  NaCl
  Hematite         -8.26    -12.27   -4.01  Fe2O3
  O2(g)            -0.23     -3.12   -2.89  O2

**For a gas, SI = log10(fugacity). Fugacity = pressure * phi / 1 atm.
  For ideal gases, phi = 1.

------------------
End of simulation.
------------------

------------------------------------
Reading input data for simulation 7.
------------------------------------

	EQUILIBRIUM_PHASES 1 
	 Hematite 0 .1 
	SOLUTION 1 
	 Na 1
	 Cl 1 
	SAVE solution 1
	USER_PRINT
	 10 print sys("Cl"), sys("H"), sys("H") - get(1)
	 20 put(sys("H"), 1)
	END
-------------------------------------------
Beginning of initial solution calculations.
-------------------------------------------

Initial solution 1.	

----------------------------------User print-----------------------------------

  1.0000e-03   1.1101e+02  -5.1010e+00 

-----------------------------Solution composition------------------------------

	Elements           Molality       Moles

	Cl                1.000e-03   1.000e-03
	Na                1.000e-03   1.000e-03

----------------------------Description of solution----------------------------

                                       pH  =   7.000    
                                       pe  =   4.000    
      Specific Conductance (µS/cm,  25°C)  = 123
                          Density (g/cm³)  =   0.99708
                               Volume (L)  =   1.00298
                        Activity of water  =   1.000
                 Ionic strength (mol/kgw)  =   1.000e-03
                       Mass of water (kg)  =   1.000e+00
                 Total alkalinity (eq/kg)  =   1.451e-09
                    Total carbon (mol/kg)  =   0.000e+00
                       Total CO2 (mol/kg)  =   0.000e+00
                         Temperature (°C)  =  25.00
                  Electrical balance (eq)  =  -1.451e-09
 Percent error, 100*(Cat-|An|)/(Cat+|An|)  =  -0.00
                               Iterations  =   3
                                  Total H  = 1.110124e+02
                                  Total O  = 5.550622e+01

----------------------------Distribution of species----------------------------

                                               Log       Log       Log    mole V
   Species          Molality    Activity  Molality  Activity     Gamma   cm³/mol

   OH-             1.049e-07   1.012e-07    -6.979    -6.995    -0.016     -4.11
   H+              1.035e-07   1.000e-07    -6.985    -7.000    -0.015      0.00
   H2O             5.551e+01   1.000e+00     1.744    -0.000     0.000     18.07
Cl            1.000e-03
   Cl-             1.000e-03   9.649e-04    -3.000    -3.016    -0.016     18.07
H(0)          1.416e-25
   H2              7.078e-26   7.079e-26   -25.150   -25.150     0.000     28.61
Na            1.000e-03
   Na+             1.000e-03   9.652e-04    -3.000    -3.015    -0.015     -1.48
   NaOH            9.767e-21   9.769e-21   -20.010   -20.010     0.000     (0)  
O(0)          0.000e+00
   O2              0.000e+00   0.000e+00   -42.080   -42.080     0.000     30.40

------------------------------Saturation indices-------------------------------

  Phase               SI** log IAP   log K(298 K,   1 atm)

  H2(g)           -22.05    -25.15   -3.10  H2
  H2O(g)           -1.50     -0.00    1.50  H2O
  Halite           -7.60     -6.03    1.57  NaCl
  O2(g)           -39.19    -42.08   -2.89  O2

**For a gas, SI = log10(fugacity). Fugacity = pressure * phi / 1 atm.
  For ideal gases, phi = 1.

-----------------------------------------
Beginning of batch-reaction calculations.
-----------------------------------------

Reaction step 1.

Using solution 1.	
Using pure phase assemblage 1.	

----------------------------------User print-----------------------------------

  1.0000e-03   1.1101e+02  -2.8422e-14 

-------------------------------Phase assemblage--------------------------------

                                                      Moles in assemblage
Phase               SI  log IAP  log K(T, P)   Initial       Final       Delta

Hematite          0.00    -4.01     -4.01    1.000e-01   1.000e-01  -2.452e-15

-----------------------------Solution composition------------------------------

	Elements           Molality       Moles

	Cl                1.000e-03   1.000e-03
	Fe                4.949e-15   4.949e-15
	Na                1.000e-03   1.000e-03

----------------------------Description of solution----------------------------

                                       pH  =   7.000      Charge balance
                                       pe  =  10.897      Adjusted to redox equilibrium
      Specific Conductance (µS/cm,  25°C)  = 123
                          Density (g/cm³)  =   0.99708
                               Volume (L)  =   1.00298
                        Activity of water  =   1.000
                 Ionic strength (mol/kgw)  =   1.000e-03
                       Mass of water (kg)  =   1.000e+00
                 Total alkalinity (eq/kg)  =   1.451e-09
                    Total carbon (mol/kg)  =   0.000e+00
                       Total CO2 (mol/kg)  =   0.000e+00
                         Temperature (°C)  =  25.00
                  Electrical balance (eq)  =  -1.451e-09
 Percent error, 100*(Cat-|An|)/(Cat+|An|)  =  -0.00
                               Iterations  =  36
                                  Total H  = 1.110124e+02
                                  Total O  = 5.550622e+01

----------------------------Distribution of species----------------------------

                                               Log       Log       Log    mole V
   Species          Molality    Activity  Molality  Activity     Gamma   cm³/mol

   OH-             1.049e-07   1.012e-07    -6.979    -6.995    -0.016     -4.11
   H+              1.035e-07   1.000e-07    -6.985    -7.000    -0.015      0.00
   H2O             5.551e+01   1.000e+00     1.744    -0.000     0.000     18.07
Cl            1.000e-03
   Cl-             1.000e-03   9.649e-04    -3.000    -3.016    -0.016     18.07
   FeCl+           1.817e-24   1.753e-24   -23.741   -23.756    -0.015     (0)  
   FeCl+2          3.325e-25   2.887e-25   -24.478   -24.540    -0.061     (0)  
   FeCl2+          1.289e-27   1.244e-27   -26.890   -26.905    -0.015     (0)  
   FeCl3           1.200e-31   1.201e-31   -30.921   -30.921     0.000     (0)  
Fe(2)         1.520e-21
   Fe+2            1.514e-21   1.316e-21   -20.820   -20.881    -0.061    -22.14
   FeOH+           4.312e-24   4.162e-24   -23.365   -23.381    -0.015     (0)  
   FeCl+           1.817e-24   1.753e-24   -23.741   -23.756    -0.015     (0)  
   Fe(OH)2         3.542e-28   3.542e-28   -27.451   -27.451     0.000     (0)  
   Fe(OH)3-        1.363e-31   1.316e-31   -30.865   -30.881    -0.015     (0)  
Fe(3)         4.949e-15
   Fe(OH)3         2.728e-15   2.729e-15   -14.564   -14.564     0.000     (0)  
   Fe(OH)2+        2.194e-15   2.118e-15   -14.659   -14.674    -0.015     (0)  
   Fe(OH)4-        2.578e-17   2.489e-17   -16.589   -16.604    -0.015     (0)  
   FeOH+2          7.368e-19   6.397e-19   -18.133   -18.194    -0.061     (0)  
   Fe+3            1.345e-23   9.909e-24   -22.871   -23.004    -0.133     (0)  
   FeCl+2          3.325e-25   2.887e-25   -24.478   -24.540    -0.061     (0)  
   FeCl2+          1.289e-27   1.244e-27   -26.890   -26.905    -0.015     (0)  
   FeCl3           1.200e-31   1.201e-31   -30.921   -30.921     0.000     (0)  
   Fe2(OH)2+4      1.949e-35   1.102e-35   -34.710   -34.958    -0.248     (0)  
   Fe3(OH)4+5      0.000e+00   0.000e+00   -46.925   -47.312    -0.387     (0)  
H(0)          2.278e-39
   H2              1.139e-39   1.139e-39   -38.943   -38.943     0.000     28.61
Na            1.000e-03
   Na+             1.000e-03   9.652e-04    -3.000    -3.015    -0.015     -1.48
   NaOH            9.767e-21   9.769e-21   -20.010   -20.010     0.000     (0)  
O(0)          6.421e-15
   O2              3.211e-15   3.211e-15   -14.493   -14.493     0.000     30.40

------------------------------Saturation indices-------------------------------

  Phase               SI** log IAP   log K(298 K,   1 atm)

  Fe(OH)3(a)       -6.90     -2.00    4.89  Fe(OH)3
  Goethite         -1.00     -2.00   -1.00  FeOOH
  H2(g)           -35.84    -38.94   -3.10  H2
  H2O(g)           -1.50     -0.00    1.50  H2O
  Halite           -7.60     -6.03    1.57  NaCl
  Hematite          0.00     -4.01   -4.01  Fe2O3
  O2(g)           -11.60    -14.49   -2.89  O2

**For a gas, SI = log10(fugacity). Fugacity = pressure * phi / 1 atm.
  For ideal gases, phi = 1.

------------------
End of simulation.
------------------

------------------------------------
Reading input data for simulation 8.
------------------------------------

	SURFACE 1 
	 Hfo_wOH Hematite 1e-2 2e3 
	 donnan # can be added, wonderful! 
	 equilibrate 1
	END
WARNING: Element H in sum of surface sites,
	 including Hfo_wOH * 0.01 mol sites/mol phase,
	 exceeds stoichiometry in the related phase Hematite, Fe2O3.
WARNING: The mismatch in stoichiometry may cause mass-balance errors or unwanted redox reactions.
------------------------------------------------------
Beginning of initial surface-composition calculations.
------------------------------------------------------

Surface 1.	

Diffuse Double Layer Surface-Complexation Model

Hfo           
	 -5.834e-15  Surface + diffuse layer charge, eq
	  1.234e-05  Surface charge, eq
	  5.953e-03  sigma, C/m²
	  6.430e-02  psi, V
	 -2.503e+00  -F*psi/RT
	  8.186e-02  exp(-F*psi/RT)
	  2.000e+03  specific area, m²/mol Hematite
	  2.000e+02  m² for   1.000e-01 moles of Hematite

	Water in diffuse layer: 2.000e-03 kg, 100.0% of total DDL-water.

	Total moles in diffuse layer (excluding water), Donnan calculation.
	Donnan Layer potential, psi_DL =  4.740e-02 V.
	Boltzmann factor, exp(-psi_DL * F / RT) = 1.581e-01 (= c_DL / c_free if z is +1).

	Element       	     Moles
	Cl            	  1.2654e-05
	Fe            	  6.4762e-18
	H             	  1.3601e-09
	Na            	  3.1611e-07
	O             	  1.3274e-09

Hfo_w         
	  1.000e-03  moles	[0.01 mol/(mol Hematite)]
	                                   Mole                     Log
	Species               Moles    Fraction    Molality    Molality

	Hfo_wOH           7.674e-04       0.767   7.674e-04      -3.115
	Hfo_wOH2+         1.225e-04       0.122   1.225e-04      -3.912
	Hfo_wO-           1.101e-04       0.110   1.101e-04      -3.958
	Hfo_wOFe+         8.658e-22       0.000   8.658e-22     -21.063
	Hfo_wOFeOH        2.847e-22       0.000   2.847e-22     -21.546

------------------
End of simulation.
------------------

------------------------------------
Reading input data for simulation 9.
------------------------------------

	USE solution 1
	USE surface 1
	USE equilibrium_phases 1
	Reaction
		HCl 1
		5
	END 
-----------------------------------------
Beginning of batch-reaction calculations.
-----------------------------------------

Reaction step 1.

Using solution 1.	Solution after simulation 7.
Using surface 1.	
Using pure phase assemblage 1.	
Using reaction 1.	

Reaction 1.	

	  5.000e+00 moles of the following reaction have been added:

	                 Relative
	Reactant            moles

	HCl                  1.00000

	                 Relative
	Element             moles
	Cl                   1.00000
	H                    1.00000

----------------------------------User print-----------------------------------

  5.0010e+00   1.1601e+02   5.0000e+00 

-------------------------------Phase assemblage--------------------------------

                                                      Moles in assemblage
Phase               SI  log IAP  log K(T, P)   Initial       Final       Delta

Hematite         -7.41   -11.42     -4.01    1.000e-01           0  -1.000e-01

------------------------------Surface composition------------------------------

Diffuse Double Layer Surface-Complexation Model

Hfo           
	  1.039e-25  Surface + diffuse layer charge, eq
	  1.039e-25  Surface charge, eq
	undefined  sigma, C/m²
	  1.408e-01  psi, V
	 -5.482e+00  -F*psi/RT
	  4.160e-03  exp(-F*psi/RT)
	  2.000e+03  specific area, m²/mol Hematite
	  0.000e+00  m² for   0.000e+00 moles of Hematite

	Water in diffuse layer: 0.000e+00 kg,  0.0% of total DDL-water.

Hfo_w         
	  0.000e+00  moles	[0.01 mol/(mol Hematite)]
	                                   Mole                     Log
	Species               Moles    Fraction    Molality    Molality

	Hfo_wOH2+         1.039e-25       0.000   1.034e-25     -24.986
	Hfo_wOH           4.128e-31       0.000   4.106e-31     -30.387
	Hfo_wO-           3.756e-38       0.000   3.736e-38     -37.428
	Hfo_wOFe+         6.027e-48       0.000   5.994e-48     -47.222
	Hfo_wOFeOH        1.060e-54       0.000   1.054e-54     -53.977

-----------------------------Solution composition------------------------------

	Elements           Molality       Moles

	Cl                4.974e+00   5.001e+00
	Fe                1.989e-01   2.000e-01
	Na                9.949e-04   1.000e-03

----------------------------Description of solution----------------------------

                                       pH  =  -0.492      Charge balance
                                       pe  =  19.878      Adjusted to redox equilibrium
      Specific Conductance (µS/cm,  25°C)  = 839887
                          Density (g/cm³)  =   1.08845
                               Volume (L)  =   1.10096
                        Activity of water  =   0.843
                 Ionic strength (mol/kgw)  =   4.693e+00
                       Mass of water (kg)  =   1.005e+00
                 Total alkalinity (eq/kg)  =  -4.774e+00
                    Total carbon (mol/kg)  =   0.000e+00
                       Total CO2 (mol/kg)  =   0.000e+00
                         Temperature (°C)  =  25.00
                  Electrical balance (eq)  =  -1.446e-09
 Percent error, 100*(Cat-|An|)/(Cat+|An|)  =  -0.00
                               Iterations  =   1
                                  Total H  = 1.160124e+02
                                  Total O  = 5.580622e+01

----------------------------Distribution of species----------------------------

                                               Log       Log       Log    mole V
   Species          Molality    Activity  Molality  Activity     Gamma   cm³/mol

   H+              4.376e+00   3.104e+00     0.641     0.492    -0.149      0.00
   OH-             5.701e-15   2.751e-15   -14.244   -14.561    -0.317      3.02
   H2O             5.551e+01   8.435e-01     1.744    -0.074     0.000     18.07
Cl            4.974e+00
   Cl-             4.630e+00   2.736e+00     0.666     0.437    -0.229     19.88
   FeCl2+          1.324e-01   7.578e-02    -0.878    -1.120    -0.242     (0)  
   FeCl+2          5.782e-02   6.201e-03    -1.238    -2.208    -0.970     (0)  
   FeCl3           7.035e-03   2.073e-02    -2.153    -1.683     0.469     (0)  
   FeCl+           1.679e-11   3.928e-11   -10.775   -10.406     0.369     (0)  
Fe(2)         8.854e-11
   Fe+2            7.175e-11   1.040e-11   -10.144   -10.983    -0.839    -18.24
   FeCl+           1.679e-11   3.928e-11   -10.775   -10.406     0.369     (0)  
   FeOH+           1.562e-21   8.940e-22   -20.806   -21.049    -0.242     (0)  
   Fe(OH)2         7.018e-34   2.068e-33   -33.154   -32.684     0.469     (0)  
   Fe(OH)3-        0.000e+00   0.000e+00   -43.438   -43.680    -0.242     (0)  
Fe(3)         1.989e-01
   FeCl2+          1.324e-01   7.578e-02    -0.878    -1.120    -0.242     (0)  
   FeCl+2          5.782e-02   6.201e-03    -1.238    -2.208    -0.970     (0)  
   FeCl3           7.035e-03   2.073e-02    -2.153    -1.683     0.469     (0)  
   Fe+3            1.653e-03   7.507e-05    -2.782    -4.125    -1.343     (0)  
   FeOH+2          1.228e-06   1.317e-07    -5.911    -6.880    -0.970     (0)  
   Fe(OH)2+        2.004e-11   1.185e-11   -10.698   -10.926    -0.228     (0)  
   Fe2(OH)2+4      5.795e-19   4.669e-13   -18.237   -12.331     5.906     (0)  
   Fe(OH)3         1.408e-19   4.149e-19   -18.851   -18.382     0.469     (0)  
   Fe(OH)4-        1.739e-28   1.028e-28   -27.760   -27.988    -0.228     (0)  
   Fe3(OH)4+5      6.832e-31   1.156e-21   -30.165   -20.937     9.228     (0)  
H(0)          0.000e+00
   H2              0.000e+00   0.000e+00   -42.392   -41.923     0.469     28.61
Na            9.949e-04
   Na+             9.949e-04   1.258e-03    -3.002    -2.900     0.102      0.95
   NaOH            1.174e-28   3.459e-28   -27.930   -27.461     0.469     (0)  
O(0)          1.411e-09
   O2              7.054e-10   2.079e-09    -9.152    -8.682     0.469     30.40

------------------------------Saturation indices-------------------------------

  Phase               SI** log IAP   log K(298 K,   1 atm)

  Fe(OH)3(a)      -10.71     -5.82    4.89  Fe(OH)3
  Goethite         -4.75     -5.75   -1.00  FeOOH
  H2(g)           -38.82    -41.92   -3.10  H2
  H2O(g)           -1.58     -0.07    1.50  H2O
  Halite           -4.03     -2.46    1.57  NaCl
  Hematite         -7.41    -11.42   -4.01  Fe2O3
  O2(g)            -5.79     -8.68   -2.89  O2

**For a gas, SI = log10(fugacity). Fugacity = pressure * phi / 1 atm.
  For ideal gases, phi = 1.

------------------
End of simulation.
------------------

-------------------------------------
Reading input data for simulation 10.
-------------------------------------

	SURFACE_MASTER_SPECIES
	Hfo_s Hfo_sO-
	SURFACE_SPECIES
	Hfo_sO- = Hfo_sO-
	log_k 0
	Hfo_sO- + H+ = Hfo_sOH
	log_k -100
	END
------------------
End of simulation.
------------------

-------------------------------------
Reading input data for simulation 11.
-------------------------------------

	EQUILIBRIUM_PHASES 1 
	 Goethite 0 .1 
	SOLUTION 1 
	 Na 1
	 Cl 1 
	SAVE solution 1
	USER_PRINT
	 10 print sys("Cl"), sys("H"), sys("H") - get(1)
	 20 put(sys("H"), 1)
	END
-------------------------------------------
Beginning of initial solution calculations.
-------------------------------------------

Initial solution 1.	

----------------------------------User print-----------------------------------

  1.0000e-03   1.1101e+02  -5.0000e+00 

-----------------------------Solution composition------------------------------

	Elements           Molality       Moles

	Cl                1.000e-03   1.000e-03
	Na                1.000e-03   1.000e-03

----------------------------Description of solution----------------------------

                                       pH  =   7.000    
                                       pe  =   4.000    
      Specific Conductance (µS/cm,  25°C)  = 123
                          Density (g/cm³)  =   0.99708
                               Volume (L)  =   1.00298
                        Activity of water  =   1.000
                 Ionic strength (mol/kgw)  =   1.000e-03
                       Mass of water (kg)  =   1.000e+00
                 Total alkalinity (eq/kg)  =   1.451e-09
                    Total carbon (mol/kg)  =   0.000e+00
                       Total CO2 (mol/kg)  =   0.000e+00
                         Temperature (°C)  =  25.00
                  Electrical balance (eq)  =  -1.451e-09
 Percent error, 100*(Cat-|An|)/(Cat+|An|)  =  -0.00
                               Iterations  =   3
                                  Total H  = 1.110124e+02
                                  Total O  = 5.550622e+01

----------------------------Distribution of species----------------------------

                                               Log       Log       Log    mole V
   Species          Molality    Activity  Molality  Activity     Gamma   cm³/mol

   OH-             1.049e-07   1.012e-07    -6.979    -6.995    -0.016     -4.11
   H+              1.035e-07   1.000e-07    -6.985    -7.000    -0.015      0.00
   H2O             5.551e+01   1.000e+00     1.744    -0.000     0.000     18.07
Cl            1.000e-03
   Cl-             1.000e-03   9.649e-04    -3.000    -3.016    -0.016     18.07
H(0)          1.416e-25
   H2              7.078e-26   7.079e-26   -25.150   -25.150     0.000     28.61
Na            1.000e-03
   Na+             1.000e-03   9.652e-04    -3.000    -3.015    -0.015     -1.48
   NaOH            9.767e-21   9.769e-21   -20.010   -20.010     0.000     (0)  
O(0)          0.000e+00
   O2              0.000e+00   0.000e+00   -42.080   -42.080     0.000     30.40

------------------------------Saturation indices-------------------------------

  Phase               SI** log IAP   log K(298 K,   1 atm)

  H2(g)           -22.05    -25.15   -3.10  H2
  H2O(g)           -1.50     -0.00    1.50  H2O
  Halite           -7.60     -6.03    1.57  NaCl
  O2(g)           -39.19    -42.08   -2.89  O2

**For a gas, SI = log10(fugacity). Fugacity = pressure * phi / 1 atm.
  For ideal gases, phi = 1.

-----------------------------------------
Beginning of batch-reaction calculations.
-----------------------------------------

Reaction step 1.

WARNING: Maximum iterations exceeded, 100

WARNING: Numerical method failed with this set of convergence parameters.

WARNING: Trying smaller step size, pe step size 10, 5 ... 

WARNING: Maximum iterations exceeded, 200

WARNING: Numerical method failed with this set of convergence parameters.

WARNING: Trying reduced tolerance 1e-16 ...

Using solution 1.	
Using pure phase assemblage 1.	

----------------------------------User print-----------------------------------

  1.0000e-03   1.1111e+02   1.0000e-01 

-------------------------------Phase assemblage--------------------------------

                                                      Moles in assemblage
Phase               SI  log IAP  log K(T, P)   Initial       Final       Delta

Goethite         -0.00    -1.00     -1.00    1.000e-01   1.000e-01   9.995e-11

-----------------------------Solution composition------------------------------

	Elements           Molality       Moles

	Cl                1.000e-03   1.000e-03
	Fe                5.132e-14   5.132e-14
	Na                1.000e-03   1.000e-03

----------------------------Description of solution----------------------------

                                       pH  =   7.000      Charge balance
                                       pe  =   5.946      Adjusted to redox equilibrium
      Specific Conductance (µS/cm,  25°C)  = 123
                          Density (g/cm³)  =   0.99708
                               Volume (L)  =   1.00298
                        Activity of water  =   1.000
                 Ionic strength (mol/kgw)  =   1.000e-03
                       Mass of water (kg)  =   1.000e+00
                 Total alkalinity (eq/kg)  =   1.451e-09
                    Total carbon (mol/kg)  =   0.000e+00
                       Total CO2 (mol/kg)  =   0.000e+00
                         Temperature (°C)  =  25.00
                  Electrical balance (eq)  =  -1.451e-09
 Percent error, 100*(Cat-|An|)/(Cat+|An|)  =  -0.00
                               Iterations  =  15
                                  Total H  = 1.110124e+02
                                  Total O  = 5.550622e+01

----------------------------Distribution of species----------------------------

                                               Log       Log       Log    mole V
   Species          Molality    Activity  Molality  Activity     Gamma   cm³/mol

   OH-             1.049e-07   1.012e-07    -6.979    -6.995    -0.016     -4.11
   H+              1.035e-07   1.000e-07    -6.985    -7.000    -0.015      0.00
   H2O             5.551e+01   1.000e+00     1.744    -0.000     0.000     18.07
Cl            1.000e-03
   Cl-             1.000e-03   9.649e-04    -3.000    -3.016    -0.016     18.07
   FeCl+           1.635e-18   1.578e-18   -17.786   -17.802    -0.015     (0)  
   FeCl+2          3.356e-24   2.914e-24   -23.474   -23.535    -0.061     (0)  
   FeCl2+          1.301e-26   1.256e-26   -25.886   -25.901    -0.015     (0)  
   FeCl3           1.212e-30   1.212e-30   -29.917   -29.917     0.000     (0)  
Fe(2)         1.368e-15
   Fe+2            1.363e-15   1.185e-15   -14.866   -14.926    -0.061    -22.14
   FeOH+           3.881e-18   3.746e-18   -17.411   -17.426    -0.015     (0)  
   FeCl+           1.635e-18   1.578e-18   -17.786   -17.802    -0.015     (0)  
   Fe(OH)2         3.188e-22   3.188e-22   -21.497   -21.496     0.000     (0)  
   Fe(OH)3-        1.227e-25   1.185e-25   -24.911   -24.926    -0.015     (0)  
Fe(3)         4.995e-14
   Fe(OH)3         2.754e-14   2.754e-14   -13.560   -13.560     0.000     (0)  
   Fe(OH)2+        2.214e-14   2.138e-14   -13.655   -13.670    -0.015     (0)  
   Fe(OH)4-        2.602e-16   2.512e-16   -15.585   -15.600    -0.015     (0)  
   FeOH+2          7.436e-18   6.457e-18   -17.129   -17.190    -0.061     (0)  
   Fe+3            1.358e-22   1.000e-22   -21.867   -22.000    -0.133     (0)  
   FeCl+2          3.356e-24   2.914e-24   -23.474   -23.535    -0.061     (0)  
   FeCl2+          1.301e-26   1.256e-26   -25.886   -25.901    -0.015     (0)  
   FeCl3           1.212e-30   1.212e-30   -29.917   -29.917     0.000     (0)  
   Fe2(OH)2+4      1.985e-33   1.122e-33   -32.702   -32.950    -0.248     (0)  
   Fe3(OH)4+5      0.000e+00   0.000e+00   -43.913   -44.300    -0.387     (0)  
H(0)          1.812e-29
   H2              9.058e-30   9.060e-30   -29.043   -29.043     0.000     28.61
Na            1.000e-03
   Na+             1.000e-03   9.652e-04    -3.000    -3.015    -0.015     -1.48
   NaOH            9.767e-21   9.769e-21   -20.010   -20.010     0.000     (0)  
O(0)          1.015e-34
   O2              5.077e-35   5.078e-35   -34.294   -34.294     0.000     30.40

------------------------------Saturation indices-------------------------------

  Phase               SI** log IAP   log K(298 K,   1 atm)

  Fe(OH)3(a)       -5.89     -1.00    4.89  Fe(OH)3
  Goethite         -0.00     -1.00   -1.00  FeOOH
  H2(g)           -25.94    -29.04   -3.10  H2
  H2O(g)           -1.50     -0.00    1.50  H2O
  Halite           -7.60     -6.03    1.57  NaCl
  Hematite          2.01     -2.00   -4.01  Fe2O3
  O2(g)           -31.40    -34.29   -2.89  O2

**For a gas, SI = log10(fugacity). Fugacity = pressure * phi / 1 atm.
  For ideal gases, phi = 1.

------------------
End of simulation.
------------------

-------------------------------------
Reading input data for simulation 12.
-------------------------------------

	SURFACE 1 
	 Hfo_sO- Goethite 1e-2 2e3 
	 donnan # can be added, wonderful! 
	 equilibrate 1
	END
WARNING: Suggest master species of surface, Hfo_sO-, be uncharged for surface related to equilibrium_phase.
------------------------------------------------------
Beginning of initial surface-composition calculations.
------------------------------------------------------

Surface 1.	

Diffuse Double Layer Surface-Complexation Model

Hfo           
	  8.710e-10  Surface + diffuse layer charge, eq
	 -1.000e-03  Surface charge, eq
	 -4.825e-01  sigma, C/m²
	 -2.857e-01  psi, V
	  1.112e+01  -F*psi/RT
	  6.764e+04  exp(-F*psi/RT)
	  2.000e+03  specific area, m²/mol Goethite
	  2.000e+02  m² for   1.000e-01 moles of Goethite

	Water in diffuse layer: 2.000e-03 kg, 100.0% of total DDL-water.

	Total moles in diffuse layer (excluding water), Donnan calculation.
	Donnan Layer potential, psi_DL = -1.597e-01 V.
	Boltzmann factor, exp(-psi_DL * F / RT) = 5.000e+02 (= c_DL / c_free if z is +1).

	Element       	     Moles
	Cl            	  4.0004e-09
	Fe            	  7.0707e-13
	H             	  1.0344e-07
	Na            	  9.9990e-04
	O             	  4.6783e-13

Hfo_s         
	  1.000e-03  moles	[0.01 mol/(mol Goethite)]
	                                   Mole                     Log
	Species               Moles    Fraction    Molality    Molality

	Hfo_sO-           1.000e-03       1.000   1.000e-03      -3.000
	Hfo_sOH2+        8.922e-101       0.000  8.922e-101    -100.050
	Hfo_sOH          6.764e-106       0.000  6.764e-106    -105.170
	Hfo_sOFe+        6.082e-110       0.000  6.082e-110    -109.216

------------------
End of simulation.
------------------

-------------------------------------
Reading input data for simulation 13.
-------------------------------------

	USE solution 1
	USE surface 1
	USE equilibrium_phases 1
	Reaction
		HCl 1
		5
	END 
-----------------------------------------
Beginning of batch-reaction calculations.
-----------------------------------------

Reaction step 1.

Using solution 1.	Solution after simulation 11.
Using surface 1.	
Using pure phase assemblage 1.	
Using reaction 1.	

Reaction 1.	

	  5.000e+00 moles of the following reaction have been added:

	                 Relative
	Reactant            moles

	HCl                  1.00000

	                 Relative
	Element             moles
	Cl                   1.00000
	H                    1.00000

----------------------------------User print-----------------------------------

  5.0010e+00   1.1611e+02   5.0000e+00 

-------------------------------Phase assemblage--------------------------------

                                                      Moles in assemblage
Phase               SI  log IAP  log K(T, P)   Initial       Final       Delta

Goethite         -5.17    -6.17     -1.00    1.000e-01           0  -1.000e-01

------------------------------Surface composition------------------------------

Diffuse Double Layer Surface-Complexation Model

Hfo           
	 -3.183e-26  Surface + diffuse layer charge, eq
	 -3.183e-26  Surface charge, eq
	undefined  sigma, C/m²
	 -4.486e-01  psi, V
	  1.746e+01  -F*psi/RT
	  3.831e+07  exp(-F*psi/RT)
	  2.000e+03  specific area, m²/mol Goethite
	  0.000e+00  m² for   0.000e+00 moles of Goethite

	Water in diffuse layer: 0.000e+00 kg,  0.0% of total DDL-water.

Hfo_s         
	  0.000e+00  moles	[0.01 mol/(mol Goethite)]
	                                   Mole                     Log
	Species               Moles    Fraction    Molality    Molality

	Hfo_sO-           3.183e-26       0.000   3.172e-26     -25.499
	Hfo_sOH2+        1.003e-102       0.000  9.999e-103    -102.000
	Hfo_sOH          4.048e-118       0.000  4.033e-118    -117.394
	Hfo_sOFe+        5.535e-123       0.000  5.516e-123    -122.258

-----------------------------Solution composition------------------------------

	Elements           Molality       Moles

	Cl                4.983e+00   5.001e+00
	Fe                9.964e-02   1.000e-01
	Na                1.993e-03   2.000e-03

----------------------------Description of solution----------------------------

                                       pH  =  -0.521      Charge balance
                                       pe  =  19.540      Adjusted to redox equilibrium
      Specific Conductance (µS/cm,  25°C)  = 883681
                          Density (g/cm³)  =   1.08033
                               Volume (L)  =   1.10269
                        Activity of water  =   0.837
                 Ionic strength (mol/kgw)  =   4.841e+00
                       Mass of water (kg)  =   1.004e+00
                 Total alkalinity (eq/kg)  =  -4.882e+00
                    Total carbon (mol/kg)  =   0.000e+00
                       Total CO2 (mol/kg)  =   0.000e+00
                         Temperature (°C)  =  25.00
                  Electrical balance (eq)  =   1.000e-03
 Percent error, 100*(Cat-|An|)/(Cat+|An|)  =   0.01
                               Iterations  =   1
                                  Total H  = 1.161124e+02
                                  Total O  = 5.570622e+01

----------------------------Distribution of species----------------------------

                                               Log       Log       Log    mole V
   Species          Molality    Activity  Molality  Activity     Gamma   cm³/mol

   H+              4.683e+00   3.319e+00     0.671     0.521    -0.150      0.00
   OH-             5.307e-15   2.552e-15   -14.275   -14.593    -0.318      3.21
   H2O             5.551e+01   8.369e-01     1.744    -0.077     0.000     18.07
Cl            4.983e+00
   Cl-             4.810e+00   2.849e+00     0.682     0.455    -0.227     19.91
   FeCl2+          6.703e-02   3.829e-02    -1.174    -1.417    -0.243     (0)  
   FeCl+2          2.826e-02   3.008e-03    -1.549    -2.522    -0.973     (0)  
   FeCl3           3.578e-03   1.091e-02    -2.446    -1.962     0.484     (0)  
   FeCl+           1.692e-11   4.154e-11   -10.772   -10.382     0.390     (0)  
Fe(2)         9.016e-11
   Fe+2            7.325e-11   1.056e-11   -10.135   -10.976    -0.841    -18.16
   FeCl+           1.692e-11   4.154e-11   -10.772   -10.382     0.390     (0)  
   FeOH+           1.474e-21   8.420e-22   -20.831   -21.075    -0.243     (0)  
   Fe(OH)2         5.928e-34   1.807e-33   -33.227   -32.743     0.484     (0)  
   Fe(OH)3-        0.000e+00   0.000e+00   -43.528   -43.771    -0.243     (0)  
Fe(3)         9.964e-02
   FeCl2+          6.703e-02   3.829e-02    -1.174    -1.417    -0.243     (0)  
   FeCl+2          2.826e-02   3.008e-03    -1.549    -2.522    -0.973     (0)  
   FeCl3           3.578e-03   1.091e-02    -2.446    -1.962     0.484     (0)  
   Fe+3            7.749e-04   3.496e-05    -3.111    -4.456    -1.346     (0)  
   FeOH+2          5.346e-07   5.691e-08    -6.272    -7.245    -0.973     (0)  
   Fe(OH)2+        8.049e-12   4.752e-12   -11.094   -11.323    -0.229     (0)  
   Fe(OH)3         5.063e-20   1.543e-19   -19.296   -18.812     0.484     (0)  
   Fe2(OH)2+4      5.004e-20   8.717e-14   -19.301   -13.060     6.241     (0)  
   Fe(OH)4-        6.012e-29   3.549e-29   -28.221   -28.450    -0.229     (0)  
   Fe3(OH)4+5      1.533e-32   8.653e-23   -31.814   -22.063     9.752     (0)  
H(0)          0.000e+00
   H2              0.000e+00   0.000e+00   -41.672   -41.188     0.484     28.61
Na            1.993e-03
   Na+             1.993e-03   2.584e-03    -2.701    -2.588     0.113      0.98
   NaOH            2.163e-28   6.594e-28   -27.665   -27.181     0.484     (0)  
O(0)          4.546e-11
   O2              2.273e-11   6.930e-11   -10.643   -10.159     0.484     30.40

------------------------------Saturation indices-------------------------------

  Phase               SI** log IAP   log K(298 K,   1 atm)

  Fe(OH)3(a)      -11.14     -6.25    4.89  Fe(OH)3
  Goethite         -5.17     -6.17   -1.00  FeOOH
  H2(g)           -38.09    -41.19   -3.10  H2
  H2O(g)           -1.58     -0.08    1.50  H2O
  Halite           -3.70     -2.13    1.57  NaCl
  Hematite         -8.26    -12.27   -4.01  Fe2O3
  O2(g)            -7.27    -10.16   -2.89  O2

**For a gas, SI = log10(fugacity). Fugacity = pressure * phi / 1 atm.
  For ideal gases, phi = 1.

------------------
End of simulation.
------------------

-------------------------------------
Reading input data for simulation 14.
-------------------------------------

	EQUILIBRIUM_PHASES 1 
	 Goethite 0 .1 
	SOLUTION 1 
	 Na 1
	 Br 1
	 Cl 1e-6 
	SAVE solution 1
	USER_PRINT
	 10 print sys("Cl"), sys("H"), sys("H") - get(1)
	 20 put(sys("H"), 1)
	END
-------------------------------------------
Beginning of initial solution calculations.
-------------------------------------------

Initial solution 1.	

----------------------------------User print-----------------------------------

  1.0000e-09   1.1101e+02  -5.1000e+00 

-----------------------------Solution composition------------------------------

	Elements           Molality       Moles

	Br                1.000e-03   1.000e-03
	Cl                1.000e-09   1.000e-09
	Na                1.000e-03   1.000e-03

----------------------------Description of solution----------------------------

                                       pH  =   7.000    
                                       pe  =   4.000    
      Specific Conductance (µS/cm,  25°C)  = 122
                          Density (g/cm³)  =   0.99712
                               Volume (L)  =   1.00299
                        Activity of water  =   1.000
                 Ionic strength (mol/kgw)  =   1.000e-03
                       Mass of water (kg)  =   1.000e+00
                 Total alkalinity (eq/kg)  =   1.451e-09
                    Total carbon (mol/kg)  =   0.000e+00
                       Total CO2 (mol/kg)  =   0.000e+00
                         Temperature (°C)  =  25.00
                  Electrical balance (eq)  =  -2.451e-09
 Percent error, 100*(Cat-|An|)/(Cat+|An|)  =  -0.00
                               Iterations  =   3
                                  Total H  = 1.110124e+02
                                  Total O  = 5.550622e+01

----------------------------Distribution of species----------------------------

                                               Log       Log       Log    mole V
   Species          Molality    Activity  Molality  Activity     Gamma   cm³/mol

   OH-             1.049e-07   1.012e-07    -6.979    -6.995    -0.016     -4.11
   H+              1.035e-07   1.000e-07    -6.985    -7.000    -0.015      0.00
   H2O             5.551e+01   1.000e+00     1.744    -0.000     0.000     18.07
Br            1.000e-03
   Br-             1.000e-03   9.646e-04    -3.000    -3.016    -0.016     24.56
Cl            1.000e-09
   Cl-             1.000e-09   9.649e-10    -9.000    -9.016    -0.016     18.07
H(0)          1.416e-25
   H2              7.078e-26   7.079e-26   -25.150   -25.150     0.000     28.61
Na            1.000e-03
   Na+             1.000e-03   9.652e-04    -3.000    -3.015    -0.015     -1.48
   NaOH            9.767e-21   9.769e-21   -20.010   -20.010     0.000     (0)  
O(0)          0.000e+00
   O2              0.000e+00   0.000e+00   -42.080   -42.080     0.000     30.40

------------------------------Saturation indices-------------------------------

  Phase               SI** log IAP   log K(298 K,   1 atm)

  H2(g)           -22.05    -25.15   -3.10  H2
  H2O(g)           -1.50     -0.00    1.50  H2O
  Halite          -13.60    -12.03    1.57  NaCl
  O2(g)           -39.19    -42.08   -2.89  O2

**For a gas, SI = log10(fugacity). Fugacity = pressure * phi / 1 atm.
  For ideal gases, phi = 1.

-----------------------------------------
Beginning of batch-reaction calculations.
-----------------------------------------

Reaction step 1.

WARNING: Maximum iterations exceeded, 100

WARNING: Numerical method failed with this set of convergence parameters.

WARNING: Trying smaller step size, pe step size 10, 5 ... 

WARNING: Maximum iterations exceeded, 200

WARNING: Numerical method failed with this set of convergence parameters.

WARNING: Trying reduced tolerance 1e-16 ...

Using solution 1.	
Using pure phase assemblage 1.	

----------------------------------User print-----------------------------------

  1.0000e-09   1.1111e+02   1.0000e-01 

-------------------------------Phase assemblage--------------------------------

                                                      Moles in assemblage
Phase               SI  log IAP  log K(T, P)   Initial       Final       Delta

Goethite          0.00    -1.00     -1.00    1.000e-01   1.000e-01   9.995e-11

-----------------------------Solution composition------------------------------

	Elements           Molality       Moles

	Br                1.000e-03   1.000e-03
	Cl                1.000e-09   1.000e-09
	Fe                5.142e-14   5.142e-14
	Na                1.000e-03   1.000e-03

----------------------------Description of solution----------------------------

                                       pH  =   7.000      Charge balance
                                       pe  =   5.915      Adjusted to redox equilibrium
      Specific Conductance (µS/cm,  25°C)  = 122
                          Density (g/cm³)  =   0.99712
                               Volume (L)  =   1.00299
                        Activity of water  =   1.000
                 Ionic strength (mol/kgw)  =   1.000e-03
                       Mass of water (kg)  =   1.000e+00
                 Total alkalinity (eq/kg)  =   1.451e-09
                    Total carbon (mol/kg)  =   0.000e+00
                       Total CO2 (mol/kg)  =   0.000e+00
                         Temperature (°C)  =  25.00
                  Electrical balance (eq)  =  -2.451e-09
 Percent error, 100*(Cat-|An|)/(Cat+|An|)  =  -0.00
                               Iterations  =  15
                                  Total H  = 1.110124e+02
                                  Total O  = 5.550622e+01

----------------------------Distribution of species----------------------------

                                               Log       Log       Log    mole V
   Species          Molality    Activity  Molality  Activity     Gamma   cm³/mol

   OH-             1.049e-07   1.012e-07    -6.979    -6.995    -0.016     -4.11
   H+              1.035e-07   1.000e-07    -6.985    -7.000    -0.015      0.00
   H2O             5.551e+01   1.000e+00     1.744    -0.000     0.000     18.07
Br            1.000e-03
   Br-             1.000e-03   9.646e-04    -3.000    -3.016    -0.016     24.56
Cl            1.000e-09
   Cl-             1.000e-09   9.649e-10    -9.000    -9.016    -0.016     18.07
   FeCl+           1.759e-24   1.697e-24   -23.755   -23.770    -0.015     (0)  
   FeCl+2          3.356e-30   2.914e-30   -29.474   -29.535    -0.061     (0)  
   FeCl2+          1.301e-38   1.256e-38   -37.886   -37.901    -0.015     (0)  
   FeCl3           0.000e+00   0.000e+00   -47.917   -47.917     0.000     (0)  
Fe(2)         1.470e-15
   Fe+2            1.465e-15   1.274e-15   -14.834   -14.895    -0.061    -22.14
   FeOH+           4.174e-18   4.029e-18   -17.379   -17.395    -0.015     (0)  
   Fe(OH)2         3.428e-22   3.429e-22   -21.465   -21.465     0.000     (0)  
   FeCl+           1.759e-24   1.697e-24   -23.755   -23.770    -0.015     (0)  
   Fe(OH)3-        1.320e-25   1.274e-25   -24.879   -24.895    -0.015     (0)  
Fe(3)         4.995e-14
   Fe(OH)3         2.754e-14   2.754e-14   -13.560   -13.560     0.000     (0)  
   Fe(OH)2+        2.214e-14   2.138e-14   -13.655   -13.670    -0.015     (0)  
   Fe(OH)4-        2.602e-16   2.512e-16   -15.585   -15.600    -0.015     (0)  
   FeOH+2          7.436e-18   6.457e-18   -17.129   -17.190    -0.061     (0)  
   Fe+3            1.358e-22   1.000e-22   -21.867   -22.000    -0.133     (0)  
   FeCl+2          3.356e-30   2.914e-30   -29.474   -29.535    -0.061     (0)  
   Fe2(OH)2+4      1.985e-33   1.122e-33   -32.702   -32.950    -0.248     (0)  
   FeCl2+          1.301e-38   1.256e-38   -37.886   -37.901    -0.015     (0)  
   Fe3(OH)4+5      0.000e+00   0.000e+00   -43.913   -44.300    -0.387     (0)  
   FeCl3           0.000e+00   0.000e+00   -47.917   -47.917     0.000     (0)  
H(0)          2.096e-29
   H2              1.048e-29   1.048e-29   -28.980   -28.980     0.000     28.61
Na            1.000e-03
   Na+             1.000e-03   9.652e-04    -3.000    -3.015    -0.015     -1.48
   NaOH            9.767e-21   9.769e-21   -20.010   -20.010     0.000     (0)  
O(0)          7.588e-35
   O2              3.794e-35   3.795e-35   -34.421   -34.421     0.000     30.40

------------------------------Saturation indices-------------------------------

  Phase               SI** log IAP   log K(298 K,   1 atm)

  Fe(OH)3(a)       -5.89     -1.00    4.89  Fe(OH)3
  Goethite          0.00     -1.00   -1.00  FeOOH
  H2(g)           -25.88    -28.98   -3.10  H2
  H2O(g)           -1.50     -0.00    1.50  H2O
  Halite          -13.60    -12.03    1.57  NaCl
  Hematite          2.01     -2.00   -4.01  Fe2O3
  O2(g)           -31.53    -34.42   -2.89  O2

**For a gas, SI = log10(fugacity). Fugacity = pressure * phi / 1 atm.
  For ideal gases, phi = 1.

------------------
End of simulation.
------------------

-------------------------------------
Reading input data for simulation 15.
-------------------------------------

	SURFACE 1 
	 Hfo_wCl Goethite 1e-2 2e3 
	 donnan # can be added, wonderful! 
	 equilibrate 1
	END
WARNING: Suggest using master species formula in SURFACE 
	 for surface related to equilibrium_phase: Hfo_wOH.
WARNING: Element Cl in sum of surface sites,
	 including Hfo_wOH * 0.01 mol sites/mol phase,
	 exceeds stoichiometry in the related phase Goethite, FeOOH.
WARNING: The mismatch in stoichiometry may cause mass-balance errors or unwanted redox reactions.
------------------------------------------------------
Beginning of initial surface-composition calculations.
------------------------------------------------------

Surface 1.	

Diffuse Double Layer Surface-Complexation Model

Hfo           
	 -5.834e-15  Surface + diffuse layer charge, eq
	  1.234e-05  Surface charge, eq
	  5.953e-03  sigma, C/m²
	  6.430e-02  psi, V
	 -2.503e+00  -F*psi/RT
	  8.186e-02  exp(-F*psi/RT)
	  2.000e+03  specific area, m²/mol Goethite
	  2.000e+02  m² for   1.000e-01 moles of Goethite

	Water in diffuse layer: 2.000e-03 kg, 100.0% of total DDL-water.

	Total moles in diffuse layer (excluding water), Donnan calculation.
	Donnan Layer potential, psi_DL =  4.740e-02 V.
	Boltzmann factor, exp(-psi_DL * F / RT) = 1.581e-01 (= c_DL / c_free if z is +1).

	Element       	     Moles
	Br            	  1.2654e-05
	Cl            	  1.2654e-11
	Fe            	  6.5437e-17
	H             	  1.3601e-09
	Na            	  3.1611e-07
	O             	  1.3274e-09

Hfo_w         
	  1.000e-03  moles	[0.01 mol/(mol Goethite)]
	                                   Mole                     Log
	Species               Moles    Fraction    Molality    Molality

	Hfo_wOH           7.674e-04       0.767   7.674e-04      -3.115
	Hfo_wOH2+         1.225e-04       0.122   1.225e-04      -3.912
	Hfo_wO-           1.101e-04       0.110   1.101e-04      -3.958
	Hfo_wOFe+         8.381e-16       0.000   8.381e-16     -15.077
	Hfo_wOFeOH        2.756e-16       0.000   2.756e-16     -15.560

------------------
End of simulation.
------------------

-------------------------------------
Reading input data for simulation 16.
-------------------------------------

	USE solution 1
	USE surface 1
	USE equilibrium_phases 1
	Reaction
		HBr 1
		5
	END 
-----------------------------------------
Beginning of batch-reaction calculations.
-----------------------------------------

Reaction step 1.

WARNING: Maximum iterations exceeded, 100

WARNING: Numerical method failed with this set of convergence parameters.

WARNING: Trying smaller step size, pe step size 10, 5 ... 

WARNING: Maximum iterations exceeded, 200

WARNING: Numerical method failed with this set of convergence parameters.

WARNING: Trying reduced tolerance 1e-16 ...

WARNING: Maximum iterations exceeded, 200

WARNING: Numerical method failed with this set of convergence parameters.

WARNING: Trying increased tolerance 1e-14 ...

WARNING: Maximum iterations exceeded, 200

WARNING: Numerical method failed with this set of convergence parameters.

WARNING: Trying diagonal scaling ...

WARNING: Maximum iterations exceeded, 200

WARNING: Numerical method failed with this set of convergence parameters.

WARNING: Trying diagonal scaling and reduced tolerance 1e-16 ...

WARNING: Maximum iterations exceeded, 200

WARNING: Numerical method failed with this set of convergence parameters.

WARNING: Trying scaling pure_phase columns 1e-10 ...

WARNING: Maximum iterations exceeded, 200

WARNING: Numerical method failed with this set of convergence parameters.

WARNING: Trying scaling pure_phase columns and diagonal scale 1e-10 ...

WARNING: Maximum iterations exceeded, 200

WARNING: Numerical method failed with this set of convergence parameters.

WARNING: Trying delay removal of equilibrium phases 1 ...

WARNING: Maximum iterations exceeded, 100

WARNING: Numerical method failed with this set of convergence parameters.

WARNING: Trying increased scaling 1e-09 ...

WARNING: Maximum iterations exceeded, 200

WARNING: Numerical method failed with this set of convergence parameters.

WARNING: Skipping optimize equations for first 5 iterations ...

WARNING: Maximum iterations exceeded, 100

WARNING: Numerical method failed with this set of convergence parameters.

WARNING: Adding inequality to make concentrations greater than zero.

WARNING: Maximum iterations exceeded, 100

WARNING: Numerical method failed with this set of convergence parameters.

WARNING: Trying reduced tolerance 1e-17 ...

WARNING: Maximum iterations exceeded, 200

WARNING: Numerical method failed with this set of convergence parameters.

WARNING: Trying reduced tolerance 1e-18 ...

WARNING: Maximum iterations exceeded, 200

WARNING: Numerical method failed with this set of convergence parameters.

WARNING: The program has failed to converge to a numerical solution.

The following equations were not satisfied:
ERROR:                   Br has not converged. Total: 5.001013e+00	Calculated: 5.000860e+00	Residual: 1.525212e-04

ERROR:                   Fe has not converged. Total: 3.118803e-05	Calculated: 1.616034e-06	Residual: 2.957200e-05

ERROR:                   Na has not converged. Total: 1.000316e-03	Calculated: 1.000354e-03	Residual: -3.748461e-08

ERROR:                   Mu Ionic strength has not converged. 	Residual: -4.280778e-06

ERROR:               A(H2O) Activity of water has not converged. 	Residual: 1.634221e-08

ERROR:                   pH Charge balance has not converged. 	Residual: -2.847624e-06

ERROR:             Hydrogen Mass of hydrogen has not converged. 	Residual: -2.788978e-04

ERROR:               Oxygen Mass of oxygen has not converged. 	Residual: 2.690321e-05

ERROR:                Hfo_w Surface mass balance has not converged. 	Residual: 5.270925e-09

ERROR:               Hfo_CB Surface charge/potential has not converged. 	Residual: -3.395813e-04

Using solution 1.	Solution after simulation 14.
Using surface 1.	
Using pure phase assemblage 1.	
Using reaction 1.	

Reaction 1.	

	  5.000e+00 moles of the following reaction have been added:

	                 Relative
	Reactant            moles

	HBr                  1.00000

	                 Relative
	Element             moles
	Br                   1.00000
	H                    1.00000

----------------------------------User print-----------------------------------

           0   1.1611e+02   5.0012e+00 

-------------------------------Phase assemblage--------------------------------

                                                      Moles in assemblage
Phase               SI  log IAP  log K(T, P)   Initial       Final       Delta

Goethite         -7.95    -8.95     -1.00    1.000e-01   9.997e-02  -3.119e-05

------------------------------Surface composition------------------------------

Diffuse Double Layer Surface-Complexation Model

Hfo           
	  3.396e-04  Surface + diffuse layer charge, eq
	  9.997e-04  Surface charge, eq
	  4.825e-01  sigma, C/m²
	  5.271e-02  psi, V
	 -2.052e+00  -F*psi/RT
	  1.285e-01  exp(-F*psi/RT)
	  2.000e+03  specific area, m²/mol Goethite
	  1.999e+02  m² for   9.997e-02 moles of Goethite

	Water in diffuse layer: 1.999e-03 kg, 100.0% of total DDL-water.

	Total moles in diffuse layer (excluding water), Donnan calculation.
	Donnan Layer potential, psi_DL =  8.497e-04 V.
	Boltzmann factor, exp(-psi_DL * F / RT) = 9.675e-01 (= c_DL / c_free if z is +1).

	Element       	     Moles
	Br            	  1.0313e-02
	Cl            	  0.0000e+00
	Fe            	  2.9206e-09
	H             	  9.6514e-03
	Na            	  1.9313e-06
	O             	  6.4583e-12

Hfo_w         
	  9.997e-04  moles	[0.01 mol/(mol Goethite)]
	                                   Mole                     Log
	Species               Moles    Fraction    Molality    Molality

	Hfo_wOH2+         9.997e-04       1.000   9.997e-04      -3.000
	Hfo_wOH           1.129e-10       0.000   1.129e-10      -9.947
	Hfo_wO-           2.921e-19       0.000   2.921e-19     -18.534
	Hfo_wOFe+         3.279e-29       0.000   3.279e-29     -28.484
	Hfo_wOFeOH        1.614e-37       0.000   1.614e-37     -36.792

-----------------------------Solution composition------------------------------

	Elements           Molality       Moles

	Br                4.991e+00   4.991e+00
	Cl                0.000e+00   0.000e+00
	Fe                1.613e-06   1.613e-06
	Na                9.984e-04   9.984e-04

----------------------------Description of solution----------------------------

                                       pH  =  -0.548      Charge balance
                                       pe  =  19.997      Adjusted to redox equilibrium
      Specific Conductance (µS/cm,  25°C)  = 867681
                          Density (g/cm³)  =   1.23869
                               Volume (L)  =   1.13331
                        Activity of water  =   0.830
                 Ionic strength (mol/kgw)  =   4.991e+00
                       Mass of water (kg)  =   1.000e+00
                 Total alkalinity (eq/kg)  =  -4.990e+00
                    Total carbon (mol/kg)  =   0.000e+00
                       Total CO2 (mol/kg)  =   0.000e+00
                         Temperature (°C)  =  25.00
                  Electrical balance (eq)  =   2.845e-06
 Percent error, 100*(Cat-|An|)/(Cat+|An|)  =   0.00
                               Iterations  = 201
                                  Total H  = 1.160021e+02
                                  Total O  = 5.550625e+01

----------------------------Distribution of species----------------------------

                                               Log       Log       Log    mole V
   Species          Molality    Activity  Molality  Activity     Gamma   cm³/mol

   H+              4.990e+00   3.534e+00     0.698     0.548    -0.150      0.00
   OH-             4.961e-15   2.378e-15   -14.304   -14.624    -0.319      3.41
   H2O             5.551e+01   8.303e-01     1.744    -0.081     0.000     18.07
Br            4.991e+00
   Br-             4.991e+00   2.199e+00     0.698     0.342    -0.356     26.12
Cl            0.000e+00
   Cl-             0.000e+00   0.000e+00   -40.860   -41.086    -0.226     19.94
   FeCl+2          0.000e+00   0.000e+00   -45.771   -46.747    -0.976     (0)  
   FeCl+           0.000e+00   0.000e+00   -55.475   -55.064     0.411     (0)  
   FeCl2+          0.000e+00   0.000e+00   -86.939   -87.183    -0.244     (0)  
   FeCl3           0.000e+00   0.000e+00  -129.768  -129.269     0.499     (0)  
Fe(2)         5.319e-14
   Fe+2            5.319e-14   7.627e-15   -13.274   -14.118    -0.844    -18.07
   FeOH+           9.940e-25   5.667e-25   -24.003   -24.247    -0.244     (0)  
   Fe(OH)2         3.592e-37   1.133e-36   -36.445   -35.946     0.499     (0)  
   Fe(OH)3-        0.000e+00   0.000e+00   -46.761   -47.005    -0.244     (0)  
   FeCl+           0.000e+00   0.000e+00   -55.475   -55.064     0.411     (0)  
Fe(3)         1.613e-06
   Fe+3            1.612e-06   7.226e-08    -5.793    -7.141    -1.348     (0)  
   FeOH+2          1.038e-09   1.096e-10    -8.984    -9.960    -0.976     (0)  
   Fe(OH)2+        1.447e-14   8.530e-15   -13.839   -14.069    -0.230     (0)  
   Fe(OH)3         8.183e-23   2.582e-22   -22.087   -21.588     0.499     (0)  
   Fe2(OH)2+4      8.501e-26   3.235e-19   -25.071   -18.490     6.580     (0)  
   Fe(OH)4-        9.388e-32   5.533e-32   -31.027   -31.257    -0.230     (0)  
   Fe3(OH)4+5      0.000e+00   5.766e-31   -40.521   -30.239    10.282     (0)  
   FeCl+2          0.000e+00   0.000e+00   -45.771   -46.747    -0.976     (0)  
   FeCl2+          0.000e+00   0.000e+00   -86.939   -87.183    -0.244     (0)  
   FeCl3           0.000e+00   0.000e+00  -129.768  -129.269     0.499     (0)  
H(0)          0.000e+00
   H2              0.000e+00   0.000e+00   -42.546   -42.047     0.499     28.61
Na            9.984e-04
   Na+             9.984e-04   1.328e-03    -3.001    -2.877     0.124      1.02
   NaOH            1.001e-28   3.159e-28   -28.000   -27.500     0.499     (0)  
O(0)          2.259e-09
   O2              1.129e-09   3.564e-09    -8.947    -8.448     0.499     30.40

------------------------------Saturation indices-------------------------------

  Phase               SI** log IAP   log K(298 K,   1 atm)

  Fe(OH)3(a)      -13.92     -9.03    4.89  Fe(OH)3
  Goethite         -7.95     -8.95   -1.00  FeOOH
  H2(g)           -38.95    -42.05   -3.10  H2
  H2O(g)           -1.58     -0.08    1.50  H2O
  Halite          -45.53    -43.96    1.57  NaCl
  Hematite        -13.81    -17.81   -4.01  Fe2O3
  O2(g)            -5.56     -8.45   -2.89  O2

**For a gas, SI = log10(fugacity). Fugacity = pressure * phi / 1 atm.
  For ideal gases, phi = 1.

ERROR: Numerical method failed on all combinations of convergence parameters, cell/soln/mix 1
Stopping.
