WARNING: Database file from DATABASE keyword is used; command line argument ignored.
   Input file: SurfMixRelatedMin
  Output file: SurfMixRelatedMin.out
Database file: ../database/phreeqc.dat

------------------
Reading data base.
------------------

	SOLUTION_MASTER_SPECIES
	SOLUTION_SPECIES
	PHASES
	EXCHANGE_MASTER_SPECIES
	EXCHANGE_SPECIES
	SURFACE_MASTER_SPECIES
	SURFACE_SPECIES
	CALCULATE_VALUES
	RATES
	END
------------------------------------
Reading input data for simulation 1.
------------------------------------

	database ../database/phreeqc.dat
	SELECTED_OUTPUT 101
	    file                 SurfMixRelatedMin_101.sel
	USER_PUNCH 101
	    headings Mu SC
	    start
	10 PUNCH STR_F$(MU, 20, 12)
	20 PUNCH STR_F$(SC, 20, 10)
	    end
	SOLUTION 1
	 Cl 1
	 Na .1
	 pH 7 charge
	END
-------------------------------------------
Beginning of initial solution calculations.
-------------------------------------------

Initial solution 1.	

-----------------------------Solution composition------------------------------

	Elements           Molality       Moles

	Cl                1.000e-03   1.000e-03
	Na                1.000e-04   1.000e-04

----------------------------Description of solution----------------------------

                                       pH  =   3.061      Charge balance
                                       pe  =   4.000    
      Specific Conductance (µS/cm,  25°C)  = 389
                          Density (g/cm³)  =   0.99706
                               Volume (L)  =   1.00298
                        Viscosity (mPa s)  =   0.89015
                        Activity of water  =   1.000
                 Ionic strength (mol/kgw)  =   9.997e-04
                       Mass of water (kg)  =   1.000e+00
                 Total alkalinity (eq/kg)  =  -9.000e-04
                         Temperature (°C)  =  25.00
                  Electrical balance (eq)  =   6.706e-12
 Percent error, 100*(Cat-|An|)/(Cat+|An|)  =   0.00
                               Iterations  =   5
                                  Total H  = 1.110133e+02
                                  Total O  = 5.550622e+01

----------------------------Distribution of species----------------------------

                                               Log       Log       Log    mole V
   Species          Molality    Activity  Molality  Activity     Gamma   cm³/mol

   H+              8.997e-04   8.697e-04    -3.046    -3.061    -0.015      0.00
   OH-             1.206e-11   1.164e-11   -10.919   -10.934    -0.016     -4.11
   H2O             5.551e+01   1.000e+00     1.744    -0.000     0.000     18.07
Cl            1.000e-03
   Cl-             9.997e-04   9.646e-04    -3.000    -3.016    -0.016     18.07
   HCl             2.887e-07   2.890e-07    -6.540    -6.539     0.000     (0)  
H(0)          1.071e-17
   H2              5.353e-18   5.354e-18   -17.271   -17.271     0.000     28.61
Na            1.000e-04
   Na+             1.000e-04   9.652e-05    -4.000    -4.015    -0.015     -1.48
   NaOH            1.123e-25   1.123e-25   -24.950   -24.950     0.000     (0)  
O(0)          0.000e+00
   O2              0.000e+00   0.000e+00   -57.838   -57.837     0.000     30.40

------------------------------Saturation indices-------------------------------

  Phase               SI** log IAP   log K(298 K,   1 atm)

  H2(g)           -14.17    -17.27   -3.10  H2
  H2O(g)           -1.50     -0.00    1.50  H2O
  Halite           -8.60     -7.03    1.57  NaCl
  O2(g)           -54.95    -57.84   -2.89  O2

**For a gas, SI = log10(fugacity). Fugacity = pressure * phi / 1 atm.
  For ideal gases, phi = 1.

------------------
End of simulation.
------------------

------------------------------------
Reading input data for simulation 2.
------------------------------------

	EQUILIBRIUM_PHASES 1
	   Gypsum 0 4e-3 
	END
------------------
End of simulation.
------------------

------------------------------------
Reading input data for simulation 3.
------------------------------------

	SURFACE 1
	Hfo_wOH Gypsum equi 1 10
	Hfo_sOH Gypsum equi .1 
	 equilibrate 1
	END
------------------------------------------------------
Beginning of initial surface-composition calculations.
------------------------------------------------------

Surface 1.	

Diffuse Double Layer Surface-Complexation Model

Hfo           
	  2.573e-07  Surface charge, eq
	  6.207e-01  sigma, C/m²
	  2.987e-01  psi, V
	 -1.163e+01  -F*psi/RT
	  8.928e-06  exp(-F*psi/RT)
	  1.000e+01  specific area, m²/mol Gypsum
	  4.000e-02  m² for   4.000e-03 moles of Gypsum


Hfo_s         
	  4.000e-04  moles	[0.1 mol/(mol Gypsum)]
	                                   Mole                     Log
	Species               Moles    Fraction    Molality    Molality

	Hfo_sOH           3.071e-04       0.768   3.071e-04      -3.513
	Hfo_sOH2+         4.649e-05       0.116   4.649e-05      -4.333
	Hfo_sO-           4.646e-05       0.116   4.646e-05      -4.333

Hfo_w         
	  4.000e-03  moles	[1 mol/(mol Gypsum)]
	                                   Mole                     Log
	Species               Moles    Fraction    Molality    Molality

	Hfo_wOH           3.071e-03       0.768   3.071e-03      -2.513
	Hfo_wOH2+         4.649e-04       0.116   4.649e-04      -3.333
	Hfo_wO-           4.646e-04       0.116   4.646e-04      -3.333

------------------
End of simulation.
------------------

------------------------------------
Reading input data for simulation 4.
------------------------------------

	DUMP
	-file SurfMixRelatedMin.dmp
	-equil 1
	-surface 1 
	END
------------------
End of simulation.
------------------

------------------------------------
Reading input data for simulation 5.
------------------------------------

	EQUILIBRIUM_PHASES_MIX 1
	  1 0.5
	DUMP
	-append
	-equil 1
	-surface 1 
	END
------------------
End of simulation.
------------------

------------------------------------
Reading input data for simulation 6.
------------------------------------

	EQUILIBRIUM_PHASES_MODIFY
	  -component  Gypsum
	  	-moles   0.001
	DUMP
	-append
	-equil 1
	-surface 1 
	END
------------------
End of simulation.
------------------

------------------------------------
Reading input data for simulation 7.
------------------------------------

	EQUILIBRIUM_PHASES_RAW       1 
	  -new_def                   0
	  -component                 Gypsum
	      -si                    0
	      -moles                 0.004
	      -force_equality        0
	      -dissolve_only         0
	      -precipitate_only      0
	      -si_org                0
	      -delta                 0
	      -initial_moles         0
	      -totals                
	  -eltList                   # List of all elements in phases and alternate reactions
	    C                        1
	    Ca                       1
	    O                        3
	  -assemblage_totals
	DUMP
	-append
	-equil 1
	-surface 1 
	END
------------------
End of simulation.
------------------

------------------------------------
Reading input data for simulation 8.
------------------------------------

	EQUILIBRIUM_PHASES_MODIFY
	  -component  Gypsum
	  	-moles   0.0
	DUMP
	-append
	-equil 1
	-surface 1 
	END
------------------
End of simulation.
------------------

------------------------------------
Reading input data for simulation 9.
------------------------------------

	EQUILIBRIUM_PHASES 1
	   Gypsum 0 2e-3 
	END
------------------
End of simulation.
------------------

-------------------------------------
Reading input data for simulation 10.
-------------------------------------

	DUMP
	-append
	-equil 1
	-surface 1 
	END
------------------
End of simulation.
------------------

-------------------------------------
Reading input data for simulation 11.
-------------------------------------

	USE solution 1
	USE equilibrium_phases 1
	USE surface 1
	END
-----------------------------------------
Beginning of batch-reaction calculations.
-----------------------------------------

Reaction step 1.

Using solution 1.	
Using surface 1.	
Using pure phase assemblage 1.	

-------------------------------Phase assemblage--------------------------------

                                                      Moles in assemblage
Phase               SI  log IAP  log K(T, P)   Initial       Final       Delta

Gypsum           -1.27    -5.85     -4.58    2.000e-03           0  -2.000e-03

------------------------------Surface composition------------------------------

Diffuse Double Layer Surface-Complexation Model

Hfo           
	  8.714e-25  Surface charge, eq
	undefined  sigma, C/m²
	  7.518e-02  psi, V
	 -2.926e+00  -F*psi/RT
	  5.359e-02  exp(-F*psi/RT)
	  1.000e+01  specific area, m²/mol Gypsum
	  0.000e+00  m² for   0.000e+00 moles of Gypsum


Hfo_s         
	  0.000e+00  moles	[0.1 mol/(mol Gypsum)]
	                                   Mole                     Log
	Species               Moles    Fraction    Molality    Molality

	Hfo_sOH2+         9.551e-25       0.000   9.550e-25     -24.020
	Hfo_sOH           1.230e-27       0.000   1.230e-27     -26.910
	Hfo_sOHCa+2       4.023e-28       0.000   4.023e-28     -27.395
	Hfo_sO-           3.627e-32       0.000   3.627e-32     -31.440

Hfo_w         
	  0.000e+00  moles	[1 mol/(mol Gypsum)]
	                                   Mole                     Log
	Species               Moles    Fraction    Molality    Molality

	Hfo_wSO4-         4.264e-25       0.000   4.264e-25     -24.370
	Hfo_wOH2+         3.441e-25       0.000   3.440e-25     -24.463
	Hfo_wOHSO4-2      1.095e-27       0.000   1.095e-27     -26.961
	Hfo_wOH           4.430e-28       0.000   4.429e-28     -27.354
	Hfo_wO-           1.307e-32       0.000   1.306e-32     -31.884
	Hfo_wOCa+         5.507e-35       0.000   5.507e-35     -34.259

-----------------------------Solution composition------------------------------

	Elements           Molality       Moles

	Ca                2.000e-03   2.000e-03
	Cl                9.999e-04   1.000e-03
	Na                9.999e-05   1.000e-04
	S                 2.000e-03   2.000e-03

----------------------------Description of solution----------------------------

                                       pH  =   3.129      Charge balance
                                       pe  =  15.775      Adjusted to redox equilibrium
      Specific Conductance (µS/cm,  25°C)  = 683
                          Density (g/cm³)  =   0.99733
                               Volume (L)  =   1.00306
                        Viscosity (mPa s)  =   0.89192
                        Activity of water  =   1.000
                 Ionic strength (mol/kgw)  =   7.809e-03
                       Mass of water (kg)  =   1.000e+00
                 Total alkalinity (eq/kg)  =  -8.999e-04
                         Temperature (°C)  =  25.00
                  Electrical balance (eq)  =   6.711e-12
 Percent error, 100*(Cat-|An|)/(Cat+|An|)  =   0.00
                               Iterations  =  37
                                  Total H  = 1.110213e+02
                                  Total O  = 5.551822e+01

----------------------------Distribution of species----------------------------

                                               Log       Log       Log    mole V
   Species          Molality    Activity  Molality  Activity     Gamma   cm³/mol

   H+              8.071e-04   7.433e-04    -3.093    -3.129    -0.036      0.00
   OH-             1.496e-11   1.362e-11   -10.825   -10.866    -0.041     -4.05
   H2O             5.551e+01   9.999e-01     1.744    -0.000     0.000     18.07
Ca            2.000e-03
   Ca+2            1.749e-03   1.221e-03    -2.757    -2.913    -0.156    -17.96
   CaSO4           2.495e-04   2.500e-04    -3.603    -3.602     0.001      7.50
   CaHSO4+         1.340e-06   1.221e-06    -5.873    -5.913    -0.040     (0)  
   CaOH+           2.990e-13   2.725e-13   -12.524   -12.565    -0.040     (0)  
Cl            9.999e-04
   Cl-             9.997e-04   9.104e-04    -3.000    -3.041    -0.041     18.13
   HCl             2.313e-07   2.331e-07    -6.636    -6.632     0.003     (0)  
H(0)          0.000e+00
   H2              0.000e+00   0.000e+00   -40.959   -40.958     0.001     28.61
Na            9.999e-05
   Na+             9.816e-05   8.959e-05    -4.008    -4.048    -0.040     -1.40
   NaSO4-          1.837e-06   1.679e-06    -5.736    -5.775    -0.039    -15.91
   NaOH            1.218e-25   1.220e-25   -24.914   -24.914     0.001     (0)  
O(0)          6.869e-11
   O2              3.434e-11   3.441e-11   -10.464   -10.463     0.001     30.40
S(-2)         0.000e+00
   H2S             0.000e+00   0.000e+00  -119.839  -119.838     0.001     36.27
   HS-             0.000e+00   0.000e+00  -123.610  -123.651    -0.041     20.66
   S-2             0.000e+00   0.000e+00  -133.283  -133.440    -0.157     (0)  
   (H2S)2          0.000e+00   0.000e+00  -240.955  -240.954     0.001     30.09
S(6)          2.000e-03
   SO4-2           1.656e-03   1.152e-03    -2.781    -2.939    -0.158     17.51
   CaSO4           2.495e-04   2.500e-04    -3.603    -3.602     0.001      7.50
   HSO4-           9.129e-05   8.322e-05    -4.040    -4.080    -0.040     40.33
   NaSO4-          1.837e-06   1.679e-06    -5.736    -5.775    -0.039    -15.91
   CaHSO4+         1.340e-06   1.221e-06    -5.873    -5.913    -0.040     (0)  

------------------------------Saturation indices-------------------------------

  Phase               SI** log IAP   log K(298 K,   1 atm)

  Anhydrite        -1.57     -5.85   -4.28  CaSO4
  Gypsum           -1.27     -5.85   -4.58  CaSO4:2H2O
  H2(g)           -37.86    -40.96   -3.10  H2
  H2O(g)           -1.50     -0.00    1.50  H2O
  H2S(g)         -118.84   -126.78   -7.94  H2S
  Halite           -8.66     -7.09    1.57  NaCl
  Mirabilite       -9.79    -11.03   -1.24  Na2SO4:10H2O
  O2(g)            -7.57    -10.46   -2.89  O2
  Sulfur          -86.91    -82.03    4.88  S
  Thenardite      -10.73    -11.03   -0.30  Na2SO4

**For a gas, SI = log10(fugacity). Fugacity = pressure * phi / 1 atm.
  For ideal gases, phi = 1.

------------------
End of simulation.
------------------

-------------------------------------
Reading input data for simulation 12.
-------------------------------------

