   Input file: surf_related
  Output file: surf_related.out
Database file: ../database/phreeqc.dat

------------------
Reading data base.
------------------

	SOLUTION_MASTER_SPECIES
	SOLUTION_SPECIES
	PHASES
	EXCHANGE_MASTER_SPECIES
	EXCHANGE_SPECIES
	SURFACE_MASTER_SPECIES
	SURFACE_SPECIES
	RATES
	END
------------------------------------
Reading input data for simulation 1.
------------------------------------

	DATABASE ../database/phreeqc.dat
	knobs
		logfile
	solution 1
	equilibrium_phases 1-2
		goethite	0.0	0.01
	save solution 1-2
	end
-------------------------------------------
Beginning of initial solution calculations.
-------------------------------------------

Initial solution 1.	

-----------------------------Solution composition------------------------------

	Elements           Molality       Moles

	Pure water     

----------------------------Description of solution----------------------------

                                       pH  =   7.000    
                                       pe  =   4.000    
       Specific Conductance (uS/cm, 25 oC) = 0
                          Density (g/cm3)  =   0.99709
                        Activity of water  =   1.000
                           Ionic strength  =   1.001e-07
                       Mass of water (kg)  =   1.000e+00
                 Total alkalinity (eq/kg)  =   1.082e-10
                    Total carbon (mol/kg)  =   0.000e+00
                       Total CO2 (mol/kg)  =   0.000e+00
                      Temperature (deg C)  =  25.00
                  Electrical balance (eq)  =  -1.082e-10
 Percent error, 100*(Cat-|An|)/(Cat+|An|)  =  -0.05
                               Iterations  =   0
                                  Total H  = 1.110124e+02
                                  Total O  = 5.550622e+01

----------------------------Distribution of species----------------------------

                                                   Log       Log         Log 
   Species                 Molality    Activity  Molality  Activity     Gamma

   OH-                    1.002e-07   1.001e-07    -6.999    -6.999    -0.000
   H+                     1.001e-07   1.000e-07    -7.000    -7.000    -0.000
   H2O                    5.551e+01   1.000e+00     1.744     0.000     0.000
H(0)             1.416e-25
   H2                     7.079e-26   7.079e-26   -25.150   -25.150     0.000
O(0)             0.000e+00
   O2                     0.000e+00   0.000e+00   -42.080   -42.080     0.000

------------------------------Saturation indices-------------------------------

	Phase               SI   log IAP   log K(298 K,   1 atm)

	H2(g)           -22.00    -25.15   -3.15  H2
	H2O(g)           -1.51*     0.00    1.51  H2O	 Delta_V  18.07 cm3/mol
	O2(g)           -39.19*   -42.08   -2.89  O2	 Delta_V  36.14 cm3/mol
	                      *  with Delta_V * (P - 1) / 2.3RT.

-----------------------------------------
Beginning of batch-reaction calculations.
-----------------------------------------

Reaction step 1.

Using solution 1.	
Using pure phase assemblage 1.	

-------------------------------Phase assemblage--------------------------------

                                                      Moles in assemblage
Phase               SI  log IAP  log K(T, P)   Initial       Final       Delta

Goethite          0.00    -1.00     -1.00    1.000e-02   1.000e-02  -5.487e-14

-----------------------------Solution composition------------------------------

	Elements           Molality       Moles

	Fe                5.488e-14   5.488e-14

----------------------------Description of solution----------------------------

                                       pH  =   7.000      Charge balance
                                       pe  =   5.267      Adjusted to redox equilibrium
       Specific Conductance (uS/cm, 25 oC) = 0
                          Density (g/cm3)  =   0.99709
                        Activity of water  =   1.000
                           Ionic strength  =   1.001e-07
                       Mass of water (kg)  =   1.000e+00
                 Total alkalinity (eq/kg)  =   1.083e-10
                    Total carbon (mol/kg)  =   0.000e+00
                       Total CO2 (mol/kg)  =   0.000e+00
                      Temperature (deg C)  =  25.00
                  Electrical balance (eq)  =  -1.082e-10
 Percent error, 100*(Cat-|An|)/(Cat+|An|)  =  -0.05
                               Iterations  =  14
                                  Total H  = 1.110124e+02
                                  Total O  = 5.550622e+01

----------------------------Distribution of species----------------------------

                                                   Log       Log         Log 
   Species                 Molality    Activity  Molality  Activity     Gamma

   OH-                    1.001e-07   1.001e-07    -6.999    -7.000    -0.000
   H+                     1.000e-07   1.000e-07    -7.000    -7.000    -0.000
   H2O                    5.551e+01   1.000e+00     1.744    -0.000     0.000
Fe(2)            5.690e-15
   Fe+2                   5.672e-15   5.663e-15   -14.246   -14.247    -0.001
   FeOH+                  1.792e-17   1.791e-17   -16.747   -16.747    -0.000
Fe(3)            4.919e-14
   Fe(OH)3                2.754e-14   2.754e-14   -13.560   -13.560     0.000
   Fe(OH)2+               2.139e-14   2.138e-14   -13.670   -13.670    -0.000
   Fe(OH)4-               2.513e-16   2.512e-16   -15.600   -15.600    -0.000
   FeOH+2                 6.466e-18   6.457e-18   -17.189   -17.190    -0.001
   Fe+3                   1.003e-22   1.000e-22   -21.999   -22.000    -0.001
   Fe2(OH)2+4             1.129e-33   1.122e-33   -32.947   -32.950    -0.003
   Fe3(OH)4+5             0.000e+00   0.000e+00   -44.296   -44.300    -0.004
H(0)             4.142e-28
   H2                     2.071e-28   2.071e-28   -27.684   -27.684     0.000
O(0)             1.944e-37
   O2                     9.721e-38   9.721e-38   -37.012   -37.012     0.000

------------------------------Saturation indices-------------------------------

	Phase               SI   log IAP   log K(298 K,   1 atm)

	Fe(OH)3(a)       -5.89*    -1.00    4.89  Fe(OH)3	 Delta_V  54.21 cm3/mol
	Goethite          0.00*    -1.00   -1.00  FeOOH	 Delta_V  36.14 cm3/mol
	H2(g)           -24.53    -27.68   -3.15  H2
	H2O(g)           -1.51*    -0.00    1.51  H2O	 Delta_V  18.07 cm3/mol
	Hematite          2.01*    -2.00   -4.01  Fe2O3	 Delta_V  54.21 cm3/mol
	O2(g)           -34.12*   -37.01   -2.89  O2	 Delta_V  36.14 cm3/mol
	                      *  with Delta_V * (P - 1) / 2.3RT.

------------------
End of simulation.
------------------

------------------------------------
Reading input data for simulation 2.
------------------------------------

	reaction 1
		HCl	1.0
		0.25	moles
	surface 1-2
		Hfo_s	goethite	0.01	50000.
		Hfo_w	goethite	0.1	50000.
		equilibrate	solution 1
	use solution 1
	use equilibrium_phases 1
	use reaction 1
	use surface 1
	save solution 2
	save equilibrium_phases 2
	save surface 2
	end
------------------------------------------------------
Beginning of initial surface-composition calculations.
------------------------------------------------------

Surface 1.	

Hfo           
	  3.184e-07  Surface charge, eq
	  6.144e-05  sigma, C/m**2
	  6.563e-02  psi, V
	 -2.555e+00  -F*psi/RT
	  7.772e-02  exp(-F*psi/RT)
	  5.000e+04  specific area, m**2/mol Goethite
	  5.000e+02  m**2 for   1.000e-02 moles of Goethite


Hfo_s         
	  1.000e-04  moles	[0.01 mol/(mol Goethite)]
	                                   Mole                     Log
	Species               Moles    Fraction    Molality    Molality

	Hfo_sOH           7.676e-05       0.768   7.676e-05      -4.115
	Hfo_sOH2+         1.163e-05       0.116   1.163e-05      -4.934
	Hfo_sO-           1.160e-05       0.116   1.160e-05      -4.935
	Hfo_sOFe+         3.791e-14       0.000   3.791e-14     -13.421

Hfo_w         
	  1.000e-03  moles	[0.1 mol/(mol Goethite)]
	                                   Mole                     Log
	Species               Moles    Fraction    Molality    Molality

	Hfo_wOH           7.676e-04       0.768   7.676e-04      -3.115
	Hfo_wOH2+         1.163e-04       0.116   1.163e-04      -3.934
	Hfo_wO-           1.160e-04       0.116   1.160e-04      -3.935
	Hfo_wOFe+         3.538e-15       0.000   3.538e-15     -14.451
	Hfo_wOFeOH        1.225e-15       0.000   1.225e-15     -14.912

-----------------------------------------
Beginning of batch-reaction calculations.
-----------------------------------------

Reaction step 1.

Using solution 1.	Solution after simulation 1.
Using surface 1.	Surface assemblage after simulation 2.
Using pure phase assemblage 1.	
Using reaction 1.	

Reaction 1.	Irreversible reaction defined in simulation 2.

	  2.500e-01 moles of the following reaction have been added:

	                 Relative
	Reactant            moles

	HCl                  1.00000

	                 Relative
	Element             moles
	Cl                   1.00000
	H                    1.00000

-------------------------------Phase assemblage--------------------------------

                                                      Moles in assemblage
Phase               SI  log IAP  log K(T, P)   Initial       Final       Delta

Goethite         -0.21    -1.21     -1.00    1.000e-02           0  -1.000e-02

------------------------------Surface composition------------------------------

Hfo           
	  8.224e-26  Surface charge, eq
	undefined  sigma, C/m**2
	  6.057e-02  psi, V
	 -2.358e+00  -F*psi/RT
	  9.465e-02  exp(-F*psi/RT)
	  5.000e+04  specific area, m**2/mol Goethite
	  0.000e+00  m**2 for   0.000e+00 moles of Goethite


Hfo_s         
	  0.000e+00  moles	[0.01 mol/(mol Goethite)]
	                                   Mole                     Log
	Species               Moles    Fraction    Molality    Molality

	Hfo_sOH2+         4.112e-26       0.000   4.111e-26     -25.386
	Hfo_sOH           1.285e-31       0.000   1.284e-31     -30.891
	Hfo_sO-           9.194e-39       0.000   9.191e-39     -38.037
	Hfo_sOFe+         8.157e-42       0.000   8.154e-42     -41.089

Hfo_w         
	  0.000e+00  moles	[0.1 mol/(mol Goethite)]
	                                   Mole                     Log
	Species               Moles    Fraction    Molality    Molality

	Hfo_wOH2+         4.112e-26       0.000   4.111e-26     -25.386
	Hfo_wOH           1.285e-31       0.000   1.284e-31     -30.891
	Hfo_wO-           9.194e-39       0.000   9.191e-39     -38.037
	Hfo_wOFe+         7.612e-44       0.000   7.610e-44     -43.119
	Hfo_wOFeOH        1.238e-50       0.000   1.238e-50     -49.907

-----------------------------Solution composition------------------------------

	Elements           Molality       Moles

	Cl                2.499e-01   2.500e-01
	Fe                9.996e-03   1.000e-02

----------------------------Description of solution----------------------------

                                       pH  =   0.761      Charge balance
                                       pe  =  18.516      Adjusted to redox equilibrium
       Specific Conductance (uS/cm, 25 oC) = 81447
                          Density (g/cm3)  =   1.00192
                        Activity of water  =   0.992
                           Ionic strength  =   2.548e-01
                       Mass of water (kg)  =   1.000e+00
                 Total alkalinity (eq/kg)  =  -2.399e-01
                    Total carbon (mol/kg)  =   0.000e+00
                       Total CO2 (mol/kg)  =   0.000e+00
                      Temperature (deg C)  =  25.00
                  Electrical balance (eq)  =   3.183e-07
 Percent error, 100*(Cat-|An|)/(Cat+|An|)  =   0.00
                               Iterations  =  20
                                  Total H  = 1.112724e+02
                                  Total O  = 5.552622e+01

----------------------------Distribution of species----------------------------

                                                   Log       Log         Log 
   Species                 Molality    Activity  Molality  Activity     Gamma

   H+                     2.200e-01   1.734e-01    -0.658    -0.761    -0.103
   OH-                    8.328e-14   5.726e-14   -13.079   -13.242    -0.163
   H2O                    5.551e+01   9.920e-01     1.744    -0.003     0.000
Cl               2.499e-01
   Cl-                    2.410e-01   1.672e-01    -0.618    -0.777    -0.159
   FeCl+2                 5.523e-03   1.639e-03    -2.258    -2.785    -0.528
   FeCl2+                 1.658e-03   1.224e-03    -2.780    -2.912    -0.132
   FeCl3                  1.929e-05   2.046e-05    -4.715    -4.689     0.025
   FeCl+                  3.242e-10   2.393e-10    -9.489    -9.621    -0.132
Fe(2)            3.724e-09
   Fe+2                   3.400e-09   1.037e-09    -8.469    -8.984    -0.516
   FeCl+                  3.242e-10   2.393e-10    -9.489    -9.621    -0.132
   FeOH+                  2.541e-18   1.876e-18   -17.595   -17.727    -0.132
Fe(3)            9.996e-03
   FeCl+2                 5.523e-03   1.639e-03    -2.258    -2.785    -0.528
   Fe+3                   2.755e-03   3.246e-04    -2.560    -3.489    -0.929
   FeCl2+                 1.658e-03   1.224e-03    -2.780    -2.912    -0.132
   FeOH+2                 4.040e-05   1.199e-05    -4.394    -4.921    -0.528
   FeCl3                  1.929e-05   2.046e-05    -4.715    -4.689     0.025
   Fe2(OH)2+4             4.990e-07   3.867e-09    -6.302    -8.413    -2.111
   Fe(OH)2+               3.076e-08   2.270e-08    -7.512    -7.644    -0.132
   Fe3(OH)4+5             3.643e-11   1.834e-14   -10.439   -13.737    -3.298
   Fe(OH)3                1.577e-14   1.673e-14   -13.802   -13.777     0.025
   Fe(OH)4-               1.182e-22   8.725e-23   -21.927   -22.059    -0.132
H(0)             0.000e+00
   H2                     0.000e+00   0.000e+00   -41.728   -41.703     0.025
O(0)             1.969e-09
   O2                     9.846e-10   1.044e-09    -9.007    -8.981     0.025

------------------------------Saturation indices-------------------------------

	Phase               SI   log IAP   log K(298 K,   1 atm)

	Fe(OH)3(a)       -6.11*    -1.22    4.89  Fe(OH)3	 Delta_V  54.21 cm3/mol
	Goethite         -0.21*    -1.21   -1.00  FeOOH	 Delta_V  36.14 cm3/mol
	H2(g)           -38.55    -41.70   -3.15  H2
	H2O(g)           -1.51*    -0.00    1.51  H2O	 Delta_V  18.07 cm3/mol
	Hematite          1.59*    -2.42   -4.01  Fe2O3	 Delta_V  54.21 cm3/mol
	O2(g)            -6.09*    -8.98   -2.89  O2	 Delta_V  36.14 cm3/mol
	                      *  with Delta_V * (P - 1) / 2.3RT.

------------------
End of simulation.
------------------

------------------------------------
Reading input data for simulation 3.
------------------------------------

	use solution 2
	use equilibrium_phases 2
	use surface 2
	end
-----------------------------------------
Beginning of batch-reaction calculations.
-----------------------------------------

Reaction step 1.

Using solution 2.	Solution after simulation 2.
Using surface 2.	Surface assemblage after simulation 2.
Using pure phase assemblage 2.	Pure-phase assemblage after simulation 2.

-------------------------------Phase assemblage--------------------------------

                                                      Moles in assemblage
Phase               SI  log IAP  log K(T, P)   Initial       Final       Delta

Goethite         -0.21    -1.21     -1.00    0.000e+00           0   0.000e+00

------------------------------Surface composition------------------------------

Hfo           
	  6.402e-25  Surface charge, eq
	undefined  sigma, C/m**2
	  6.057e-02  psi, V
	 -2.358e+00  -F*psi/RT
	  9.465e-02  exp(-F*psi/RT)
	  5.000e+04  specific area, m**2/mol Goethite
	  0.000e+00  m**2 for   0.000e+00 moles of Goethite


Hfo_s         
	  0.000e+00  moles	[0.01 mol/(mol Goethite)]
	                                   Mole                     Log
	Species               Moles    Fraction    Molality    Molality

	Hfo_sOH2+         3.201e-25       0.000   3.200e-25     -24.495
	Hfo_sOH           1.000e-30       0.000   9.996e-31     -30.000
	Hfo_sO-           7.157e-38       0.000   7.154e-38     -37.145
	Hfo_sOFe+         6.349e-41       0.000   6.347e-41     -40.197

Hfo_w         
	  0.000e+00  moles	[0.1 mol/(mol Goethite)]
	                                   Mole                     Log
	Species               Moles    Fraction    Molality    Molality

	Hfo_wOH2+         3.201e-25       0.000   3.200e-25     -24.495
	Hfo_wOH           1.000e-30       0.000   9.996e-31     -30.000
	Hfo_wO-           7.157e-38       0.000   7.154e-38     -37.145
	Hfo_wOFe+         5.926e-43       0.000   5.923e-43     -42.227
	Hfo_wOFeOH        9.637e-50       0.000   9.634e-50     -49.016

-----------------------------Solution composition------------------------------

	Elements           Molality       Moles

	Cl                2.499e-01   2.500e-01
	Fe                9.996e-03   1.000e-02

----------------------------Description of solution----------------------------

                                       pH  =   0.761      Charge balance
                                       pe  =  18.516      Adjusted to redox equilibrium
       Specific Conductance (uS/cm, 25 oC) = 81447
                          Density (g/cm3)  =   1.00192
                        Activity of water  =   0.992
                           Ionic strength  =   2.548e-01
                       Mass of water (kg)  =   1.000e+00
                 Total alkalinity (eq/kg)  =  -2.399e-01
                    Total carbon (mol/kg)  =   0.000e+00
                       Total CO2 (mol/kg)  =   0.000e+00
                      Temperature (deg C)  =  25.00
                  Electrical balance (eq)  =   3.183e-07
 Percent error, 100*(Cat-|An|)/(Cat+|An|)  =   0.00
                               Iterations  =   1
                                  Total H  = 1.112724e+02
                                  Total O  = 5.552622e+01

----------------------------Distribution of species----------------------------

                                                   Log       Log         Log 
   Species                 Molality    Activity  Molality  Activity     Gamma

   H+                     2.200e-01   1.734e-01    -0.658    -0.761    -0.103
   OH-                    8.328e-14   5.726e-14   -13.079   -13.242    -0.163
   H2O                    5.551e+01   9.920e-01     1.744    -0.003     0.000
Cl               2.499e-01
   Cl-                    2.410e-01   1.672e-01    -0.618    -0.777    -0.159
   FeCl+2                 5.523e-03   1.639e-03    -2.258    -2.785    -0.528
   FeCl2+                 1.658e-03   1.224e-03    -2.780    -2.912    -0.132
   FeCl3                  1.929e-05   2.046e-05    -4.715    -4.689     0.025
   FeCl+                  3.242e-10   2.393e-10    -9.489    -9.621    -0.132
Fe(2)            3.724e-09
   Fe+2                   3.400e-09   1.037e-09    -8.469    -8.984    -0.516
   FeCl+                  3.242e-10   2.393e-10    -9.489    -9.621    -0.132
   FeOH+                  2.541e-18   1.876e-18   -17.595   -17.727    -0.132
Fe(3)            9.996e-03
   FeCl+2                 5.523e-03   1.639e-03    -2.258    -2.785    -0.528
   Fe+3                   2.755e-03   3.246e-04    -2.560    -3.489    -0.929
   FeCl2+                 1.658e-03   1.224e-03    -2.780    -2.912    -0.132
   FeOH+2                 4.040e-05   1.199e-05    -4.394    -4.921    -0.528
   FeCl3                  1.929e-05   2.046e-05    -4.715    -4.689     0.025
   Fe2(OH)2+4             4.990e-07   3.867e-09    -6.302    -8.413    -2.111
   Fe(OH)2+               3.076e-08   2.270e-08    -7.512    -7.644    -0.132
   Fe3(OH)4+5             3.643e-11   1.834e-14   -10.439   -13.737    -3.298
   Fe(OH)3                1.577e-14   1.673e-14   -13.802   -13.777     0.025
   Fe(OH)4-               1.182e-22   8.725e-23   -21.927   -22.059    -0.132
H(0)             0.000e+00
   H2                     0.000e+00   0.000e+00   -41.728   -41.703     0.025
O(0)             1.969e-09
   O2                     9.846e-10   1.044e-09    -9.007    -8.981     0.025

------------------------------Saturation indices-------------------------------

	Phase               SI   log IAP   log K(298 K,   1 atm)

	Fe(OH)3(a)       -6.11*    -1.22    4.89  Fe(OH)3	 Delta_V  54.21 cm3/mol
	Goethite         -0.21*    -1.21   -1.00  FeOOH	 Delta_V  36.14 cm3/mol
	H2(g)           -38.55    -41.70   -3.15  H2
	H2O(g)           -1.51*    -0.00    1.51  H2O	 Delta_V  18.07 cm3/mol
	Hematite          1.59*    -2.42   -4.01  Fe2O3	 Delta_V  54.21 cm3/mol
	O2(g)            -6.09*    -8.98   -2.89  O2	 Delta_V  36.14 cm3/mol
	                      *  with Delta_V * (P - 1) / 2.3RT.

------------------
End of simulation.
------------------

------------------------------------
Reading input data for simulation 4.
------------------------------------

	solution 1
	equilibrium_phases 1
		goethite	0.0	0.0
	reaction 1
		FeCl3	1.0
		0.25	moles
	surface 1
		Hfo_s	goethite	0.01	50000
		Hfo_w	goethite	0.1	50000
		equilibrate	solution 1
	end
-------------------------------------------
Beginning of initial solution calculations.
-------------------------------------------

Initial solution 1.	

-----------------------------Solution composition------------------------------

	Elements           Molality       Moles

	Pure water     

----------------------------Description of solution----------------------------

                                       pH  =   7.000    
                                       pe  =   4.000    
       Specific Conductance (uS/cm, 25 oC) = 0
                          Density (g/cm3)  =   0.99709
                        Activity of water  =   1.000
                           Ionic strength  =   1.001e-07
                       Mass of water (kg)  =   1.000e+00
                 Total alkalinity (eq/kg)  =   1.082e-10
                    Total carbon (mol/kg)  =   0.000e+00
                       Total CO2 (mol/kg)  =   0.000e+00
                      Temperature (deg C)  =  25.00
                  Electrical balance (eq)  =  -1.082e-10
 Percent error, 100*(Cat-|An|)/(Cat+|An|)  =  -0.05
                               Iterations  =   0
                                  Total H  = 1.110124e+02
                                  Total O  = 5.550622e+01

----------------------------Distribution of species----------------------------

                                                   Log       Log         Log 
   Species                 Molality    Activity  Molality  Activity     Gamma

   OH-                    1.002e-07   1.001e-07    -6.999    -6.999    -0.000
   H+                     1.001e-07   1.000e-07    -7.000    -7.000    -0.000
   H2O                    5.551e+01   1.000e+00     1.744     0.000     0.000
H(0)             1.416e-25
   H2                     7.079e-26   7.079e-26   -25.150   -25.150     0.000
O(0)             0.000e+00
   O2                     0.000e+00   0.000e+00   -42.080   -42.080     0.000

------------------------------Saturation indices-------------------------------

	Phase               SI   log IAP   log K(298 K,   1 atm)

	H2(g)           -22.00    -25.15   -3.15  H2
	H2O(g)           -1.51*     0.00    1.51  H2O	 Delta_V  18.07 cm3/mol
	O2(g)           -39.19*   -42.08   -2.89  O2	 Delta_V  36.14 cm3/mol
	                      *  with Delta_V * (P - 1) / 2.3RT.

------------------------------------------------------
Beginning of initial surface-composition calculations.
------------------------------------------------------

Surface 1.	

Hfo           
	  1.208e-31  Surface charge, eq
	undefined  sigma, C/m**2
	  6.057e-02  psi, V
	 -2.358e+00  -F*psi/RT
	  9.465e-02  exp(-F*psi/RT)
	  5.000e+04  specific area, m**2/mol Goethite
	  0.000e+00  m**2 for   0.000e+00 moles of Goethite


Hfo_s         
	  0.000e+00  moles	[0.01 mol/(mol Goethite)]
	                                   Mole                     Log
	Species               Moles    Fraction    Molality    Molality

	Hfo_sOH           1.000e-30       0.000   1.000e-30     -30.000
	Hfo_sOH2+         1.846e-31       0.000   1.846e-31     -30.734
	Hfo_sO-           1.241e-31       0.000   1.241e-31     -30.906

Hfo_w         
	  0.000e+00  moles	[0.1 mol/(mol Goethite)]
	                                   Mole                     Log
	Species               Moles    Fraction    Molality    Molality

	Hfo_wOH           1.000e-30       0.000   1.000e-30     -30.000
	Hfo_wOH2+         1.846e-31       0.000   1.846e-31     -30.734
	Hfo_wO-           1.241e-31       0.000   1.241e-31     -30.906

-----------------------------------------
Beginning of batch-reaction calculations.
-----------------------------------------

Reaction step 1.

Using solution 1.	
Using surface 1.	Surface assemblage after simulation 4.
Using pure phase assemblage 1.	
Using reaction 1.	

Reaction 1.	Irreversible reaction defined in simulation 4.

	  2.500e-01 moles of the following reaction have been added:

	                 Relative
	Reactant            moles

	FeCl3                1.00000

	                 Relative
	Element             moles
	Cl                   3.00000
	Fe                   1.00000

-------------------------------Phase assemblage--------------------------------

                                                      Moles in assemblage
Phase               SI  log IAP  log K(T, P)   Initial       Final       Delta

Goethite          0.00    -1.00     -1.00    0.000e+00   1.186e-01   1.186e-01

------------------------------Surface composition------------------------------

Hfo           
	  1.305e-02  Surface charge, eq
	  2.123e-01  sigma, C/m**2
	  7.696e-02  psi, V
	 -2.995e+00  -F*psi/RT
	  5.001e-02  exp(-F*psi/RT)
	  5.000e+04  specific area, m**2/mol Goethite
	  5.930e+03  m**2 for   1.186e-01 moles of Goethite


Hfo_s         
	  1.186e-03  moles	[0.01 mol/(mol Goethite)]
	                                   Mole                     Log
	Species               Moles    Fraction    Molality    Molality

	Hfo_sOH2+         1.186e-03       1.000   1.191e-03      -2.924
	Hfo_sOH           4.691e-09       0.000   4.712e-09      -8.327
	Hfo_sO-           4.251e-16       0.000   4.269e-16     -15.370
	Hfo_sOFe+         2.757e-19       0.000   2.769e-19     -18.558

Hfo_w         
	  1.186e-02  moles	[0.1 mol/(mol Goethite)]
	                                   Mole                     Log
	Species               Moles    Fraction    Molality    Molality

	Hfo_wOH2+         1.186e-02       1.000   1.191e-02      -1.924
	Hfo_wOH           4.691e-08       0.000   4.712e-08      -7.327
	Hfo_wO-           4.251e-15       0.000   4.269e-15     -14.370
	Hfo_wOFe+         2.573e-20       0.000   2.584e-20     -19.588
	Hfo_wOFeOH        5.243e-27       0.000   5.266e-27     -26.279

-----------------------------Solution composition------------------------------

	Elements           Molality       Moles

	Cl                7.532e-01   7.500e-01
	Fe                1.320e-01   1.314e-01

----------------------------Description of solution----------------------------

                                       pH  =   0.586      Charge balance
                                       pe  =  18.843      Adjusted to redox equilibrium
       Specific Conductance (uS/cm, 25 oC) = 124879
                          Density (g/cm3)  =   1.01562
                        Activity of water  =   0.982
                           Ionic strength  =   7.247e-01
                       Mass of water (kg)  =   9.957e-01
                 Total alkalinity (eq/kg)  =  -6.082e-01
                    Total carbon (mol/kg)  =   0.000e+00
                       Total CO2 (mol/kg)  =   0.000e+00
                      Temperature (deg C)  =  25.00
                  Electrical balance (eq)  =  -1.305e-02
 Percent error, 100*(Cat-|An|)/(Cat+|An|)  =  -1.11
                               Iterations  =  27
                                  Total H  = 1.108808e+02
                                  Total O  = 5.526900e+01

----------------------------Distribution of species----------------------------

                                                   Log       Log         Log 
   Species                 Molality    Activity  Molality  Activity     Gamma

   H+                     3.444e-01   2.593e-01    -0.463    -0.586    -0.123
   OH-                    6.279e-14   3.791e-14   -13.202   -13.421    -0.219
   H2O                    5.551e+01   9.817e-01     1.744    -0.008     0.000
Cl               7.532e-01
   Cl-                    5.982e-01   3.703e-01    -0.223    -0.431    -0.208
   FeCl+2                 6.304e-02   2.022e-02    -1.200    -1.694    -0.494
   FeCl2+                 4.443e-02   3.344e-02    -1.352    -1.476    -0.123
   FeCl3                  1.048e-03   1.238e-03    -2.980    -2.907     0.072
   FeCl+                  1.844e-09   1.388e-09    -8.734    -8.858    -0.123
Fe(2)            1.391e-08
   Fe+2                   1.207e-08   2.715e-09    -7.918    -8.566    -0.648
   FeCl+                  1.844e-09   1.388e-09    -8.734    -8.858    -0.123
   FeOH+                  4.320e-18   3.251e-18   -17.365   -17.488    -0.123
Fe(3)            1.320e-01
   FeCl+2                 6.304e-02   2.022e-02    -1.200    -1.694    -0.494
   FeCl2+                 4.443e-02   3.344e-02    -1.352    -1.476    -0.123
   Fe+3                   2.329e-02   1.808e-03    -1.633    -2.743    -1.110
   FeCl3                  1.048e-03   1.238e-03    -2.980    -2.907     0.072
   FeOH+2                 1.378e-04   4.420e-05    -3.861    -4.355    -0.494
   Fe2(OH)2+4             4.971e-06   5.259e-08    -5.304    -7.279    -1.975
   Fe(OH)2+               7.365e-08   5.543e-08    -7.133    -7.256    -0.123
   Fe3(OH)4+5             7.436e-10   6.090e-13    -9.129   -12.215    -3.087
   Fe(OH)3                2.288e-14   2.704e-14   -13.640   -13.568     0.072
   Fe(OH)4-               1.241e-22   9.338e-23   -21.906   -22.030    -0.123
H(0)             0.000e+00
   H2                     0.000e+00   0.000e+00   -42.082   -42.009     0.072
O(0)             7.102e-09
   O2                     3.551e-09   4.196e-09    -8.450    -8.377     0.072

------------------------------Saturation indices-------------------------------

	Phase               SI   log IAP   log K(298 K,   1 atm)

	Fe(OH)3(a)       -5.90*    -1.01    4.89  Fe(OH)3	 Delta_V  54.21 cm3/mol
	Goethite          0.00*    -1.00   -1.00  FeOOH	 Delta_V  36.14 cm3/mol
	H2(g)           -38.86    -42.01   -3.15  H2
	H2O(g)           -1.52*    -0.01    1.51  H2O	 Delta_V  18.07 cm3/mol
	Hematite          2.02*    -1.99   -4.01  Fe2O3	 Delta_V  54.21 cm3/mol
	O2(g)            -5.48*    -8.38   -2.89  O2	 Delta_V  36.14 cm3/mol
	                      *  with Delta_V * (P - 1) / 2.3RT.

------------------
End of simulation.
------------------

------------------------------------
Reading input data for simulation 5.
------------------------------------

	solution 1
	equilibrium_phases 1-2
		goethite	0.0	0.01
	save solution 1-2
	end
-------------------------------------------
Beginning of initial solution calculations.
-------------------------------------------

Initial solution 1.	

-----------------------------Solution composition------------------------------

	Elements           Molality       Moles

	Pure water     

----------------------------Description of solution----------------------------

                                       pH  =   7.000    
                                       pe  =   4.000    
       Specific Conductance (uS/cm, 25 oC) = 0
                          Density (g/cm3)  =   0.99709
                        Activity of water  =   1.000
                           Ionic strength  =   1.001e-07
                       Mass of water (kg)  =   1.000e+00
                 Total alkalinity (eq/kg)  =   1.082e-10
                    Total carbon (mol/kg)  =   0.000e+00
                       Total CO2 (mol/kg)  =   0.000e+00
                      Temperature (deg C)  =  25.00
                  Electrical balance (eq)  =  -1.082e-10
 Percent error, 100*(Cat-|An|)/(Cat+|An|)  =  -0.05
                               Iterations  =   0
                                  Total H  = 1.110124e+02
                                  Total O  = 5.550622e+01

----------------------------Distribution of species----------------------------

                                                   Log       Log         Log 
   Species                 Molality    Activity  Molality  Activity     Gamma

   OH-                    1.002e-07   1.001e-07    -6.999    -6.999    -0.000
   H+                     1.001e-07   1.000e-07    -7.000    -7.000    -0.000
   H2O                    5.551e+01   1.000e+00     1.744     0.000     0.000
H(0)             1.416e-25
   H2                     7.079e-26   7.079e-26   -25.150   -25.150     0.000
O(0)             0.000e+00
   O2                     0.000e+00   0.000e+00   -42.080   -42.080     0.000

------------------------------Saturation indices-------------------------------

	Phase               SI   log IAP   log K(298 K,   1 atm)

	H2(g)           -22.00    -25.15   -3.15  H2
	H2O(g)           -1.51*     0.00    1.51  H2O	 Delta_V  18.07 cm3/mol
	O2(g)           -39.19*   -42.08   -2.89  O2	 Delta_V  36.14 cm3/mol
	                      *  with Delta_V * (P - 1) / 2.3RT.

-----------------------------------------
Beginning of batch-reaction calculations.
-----------------------------------------

Reaction step 1.

Using solution 1.	
Using pure phase assemblage 1.	

-------------------------------Phase assemblage--------------------------------

                                                      Moles in assemblage
Phase               SI  log IAP  log K(T, P)   Initial       Final       Delta

Goethite          0.00    -1.00     -1.00    1.000e-02   1.000e-02  -5.487e-14

-----------------------------Solution composition------------------------------

	Elements           Molality       Moles

	Fe                5.488e-14   5.488e-14

----------------------------Description of solution----------------------------

                                       pH  =   7.000      Charge balance
                                       pe  =   5.267      Adjusted to redox equilibrium
       Specific Conductance (uS/cm, 25 oC) = 0
                          Density (g/cm3)  =   0.99709
                        Activity of water  =   1.000
                           Ionic strength  =   1.001e-07
                       Mass of water (kg)  =   1.000e+00
                 Total alkalinity (eq/kg)  =   1.083e-10
                    Total carbon (mol/kg)  =   0.000e+00
                       Total CO2 (mol/kg)  =   0.000e+00
                      Temperature (deg C)  =  25.00
                  Electrical balance (eq)  =  -1.082e-10
 Percent error, 100*(Cat-|An|)/(Cat+|An|)  =  -0.05
                               Iterations  =  14
                                  Total H  = 1.110124e+02
                                  Total O  = 5.550622e+01

----------------------------Distribution of species----------------------------

                                                   Log       Log         Log 
   Species                 Molality    Activity  Molality  Activity     Gamma

   OH-                    1.001e-07   1.001e-07    -6.999    -7.000    -0.000
   H+                     1.000e-07   1.000e-07    -7.000    -7.000    -0.000
   H2O                    5.551e+01   1.000e+00     1.744    -0.000     0.000
Fe(2)            5.690e-15
   Fe+2                   5.672e-15   5.663e-15   -14.246   -14.247    -0.001
   FeOH+                  1.792e-17   1.791e-17   -16.747   -16.747    -0.000
Fe(3)            4.919e-14
   Fe(OH)3                2.754e-14   2.754e-14   -13.560   -13.560     0.000
   Fe(OH)2+               2.139e-14   2.138e-14   -13.670   -13.670    -0.000
   Fe(OH)4-               2.513e-16   2.512e-16   -15.600   -15.600    -0.000
   FeOH+2                 6.466e-18   6.457e-18   -17.189   -17.190    -0.001
   Fe+3                   1.003e-22   1.000e-22   -21.999   -22.000    -0.001
   Fe2(OH)2+4             1.129e-33   1.122e-33   -32.947   -32.950    -0.003
   Fe3(OH)4+5             0.000e+00   0.000e+00   -44.296   -44.300    -0.004
H(0)             4.142e-28
   H2                     2.071e-28   2.071e-28   -27.684   -27.684     0.000
O(0)             1.944e-37
   O2                     9.721e-38   9.721e-38   -37.012   -37.012     0.000

------------------------------Saturation indices-------------------------------

	Phase               SI   log IAP   log K(298 K,   1 atm)

	Fe(OH)3(a)       -5.89*    -1.00    4.89  Fe(OH)3	 Delta_V  54.21 cm3/mol
	Goethite          0.00*    -1.00   -1.00  FeOOH	 Delta_V  36.14 cm3/mol
	H2(g)           -24.53    -27.68   -3.15  H2
	H2O(g)           -1.51*    -0.00    1.51  H2O	 Delta_V  18.07 cm3/mol
	Hematite          2.01*    -2.00   -4.01  Fe2O3	 Delta_V  54.21 cm3/mol
	O2(g)           -34.12*   -37.01   -2.89  O2	 Delta_V  36.14 cm3/mol
	                      *  with Delta_V * (P - 1) / 2.3RT.

------------------
End of simulation.
------------------

------------------------------------
Reading input data for simulation 6.
------------------------------------

	reaction 1
		HCl	1.0
		0.25	moles
	surface 1-2
		diff
		Hfo_s	goethite	0.01	50000
		Hfo_w	goethite	0.1	50000
		equilibrate	solution 1
	use solution 1
	use equilibrium_phases 1
	use reaction 1
	use surface 1
	save solution 2
	save equilibrium_phases 2
	save surface 2
	end
------------------------------------------------------
Beginning of initial surface-composition calculations.
------------------------------------------------------

Surface 1.	

Hfo           
	  2.314e-15  Surface + diffuse layer charge, eq
	  3.180e-07  Surface charge, eq
	  6.137e-05  sigma, C/m**2
	  6.563e-02  psi, V
	 -2.555e+00  -F*psi/RT
	  7.772e-02  exp(-F*psi/RT)
	  5.000e+04  specific area, m**2/mol Goethite
	  5.000e+02  m**2 for   1.000e-02 moles of Goethite

	Water in diffuse layer: 5.000e-03 kg, 100.0% of total DDL-water.

	Total moles in diffuse layer (excluding water)

	Element       	     Moles
	Fe            	 -1.9601e-14
	H             	  1.8064e-07
	O             	  2.4932e-07

Hfo_s         
	  1.000e-04  moles	[0.01 mol/(mol Goethite)]
	                                   Mole                     Log
	Species               Moles    Fraction    Molality    Molality

	Hfo_sOH           7.676e-05       0.768   7.676e-05      -4.115
	Hfo_sOH2+         1.163e-05       0.116   1.163e-05      -4.934
	Hfo_sO-           1.160e-05       0.116   1.160e-05      -4.935
	Hfo_sOFe+         3.791e-14       0.000   3.791e-14     -13.421

Hfo_w         
	  1.000e-03  moles	[0.1 mol/(mol Goethite)]
	                                   Mole                     Log
	Species               Moles    Fraction    Molality    Molality

	Hfo_wOH           7.676e-04       0.768   7.676e-04      -3.115
	Hfo_wOH2+         1.163e-04       0.116   1.163e-04      -3.934
	Hfo_wO-           1.160e-04       0.116   1.160e-04      -3.935
	Hfo_wOFe+         3.538e-15       0.000   3.538e-15     -14.451
	Hfo_wOFeOH        1.225e-15       0.000   1.225e-15     -14.912

-----------------------------------------
Beginning of batch-reaction calculations.
-----------------------------------------

Reaction step 1.

Using solution 1.	Solution after simulation 5.
Using surface 1.	Surface assemblage after simulation 6.
Using pure phase assemblage 1.	
Using reaction 1.	

Reaction 1.	Irreversible reaction defined in simulation 6.

	  2.500e-01 moles of the following reaction have been added:

	                 Relative
	Reactant            moles

	HCl                  1.00000

	                 Relative
	Element             moles
	Cl                   1.00000
	H                    1.00000

-------------------------------Phase assemblage--------------------------------

                                                      Moles in assemblage
Phase               SI  log IAP  log K(T, P)   Initial       Final       Delta

Goethite         -0.21    -1.21     -1.00    1.000e-02           0  -1.000e-02

------------------------------Surface composition------------------------------

Hfo           
	  1.456e-24  Surface + diffuse layer charge, eq
	  1.456e-24  Surface charge, eq
	undefined  sigma, C/m**2
	  6.563e-02  psi, V
	 -2.555e+00  -F*psi/RT
	  7.772e-02  exp(-F*psi/RT)
	  5.000e+04  specific area, m**2/mol Goethite
	  0.000e+00  m**2 for   0.000e+00 moles of Goethite

	Water in diffuse layer: 0.000e+00 kg,  0.0% of total DDL-water.

	Total moles in diffuse layer (excluding water)

	Element       	     Moles
	Cl            	  0.0000e+00
	Fe            	  0.0000e+00
	H             	  0.0000e+00
	O             	  0.0000e+00

Hfo_s         
	  0.000e+00  moles	[0.01 mol/(mol Goethite)]
	                                   Mole                     Log
	Species               Moles    Fraction    Molality    Molality

	Hfo_sOH2+         7.282e-25       0.000   7.279e-25     -24.138
	Hfo_sOH           2.770e-30       0.000   2.769e-30     -29.558
	Hfo_sO-           2.415e-37       0.000   2.414e-37     -36.617
	Hfo_sOFe+         1.447e-40       0.000   1.446e-40     -39.840

Hfo_w         
	  0.000e+00  moles	[0.1 mol/(mol Goethite)]
	                                   Mole                     Log
	Species               Moles    Fraction    Molality    Molality

	Hfo_wOH2+         7.282e-25       0.000   7.279e-25     -24.138
	Hfo_wOH           2.770e-30       0.000   2.769e-30     -29.558
	Hfo_wO-           2.415e-37       0.000   2.414e-37     -36.617
	Hfo_wOFe+         1.350e-42       0.000   1.350e-42     -41.870
	Hfo_wOFeOH        2.675e-49       0.000   2.674e-49     -48.573

-----------------------------Solution composition------------------------------

	Elements           Molality       Moles

	Cl                2.499e-01   2.500e-01
	Fe                9.996e-03   1.000e-02

----------------------------Description of solution----------------------------

                                       pH  =   0.761      Charge balance
                                       pe  =  18.515      Adjusted to redox equilibrium
       Specific Conductance (uS/cm, 25 oC) = 81447
                          Density (g/cm3)  =   1.00192
                        Activity of water  =   0.992
                           Ionic strength  =   2.548e-01
                       Mass of water (kg)  =   1.000e+00
                 Total alkalinity (eq/kg)  =  -2.399e-01
                    Total carbon (mol/kg)  =   0.000e+00
                       Total CO2 (mol/kg)  =   0.000e+00
                      Temperature (deg C)  =  25.00
                  Electrical balance (eq)  =  -9.179e-11
 Percent error, 100*(Cat-|An|)/(Cat+|An|)  =  -0.00
                               Iterations  =   5
                                  Total H  = 1.112724e+02
                                  Total O  = 5.552622e+01

----------------------------Distribution of species----------------------------

                                                   Log       Log         Log 
   Species                 Molality    Activity  Molality  Activity     Gamma

   H+                     2.200e-01   1.734e-01    -0.658    -0.761    -0.103
   OH-                    8.328e-14   5.726e-14   -13.079   -13.242    -0.163
   H2O                    5.551e+01   9.920e-01     1.744    -0.003     0.000
Cl               2.499e-01
   Cl-                    2.410e-01   1.672e-01    -0.618    -0.777    -0.159
   FeCl+2                 5.523e-03   1.639e-03    -2.258    -2.785    -0.528
   FeCl2+                 1.658e-03   1.224e-03    -2.780    -2.912    -0.132
   FeCl3                  1.929e-05   2.046e-05    -4.715    -4.689     0.025
   FeCl+                  3.248e-10   2.397e-10    -9.488    -9.620    -0.132
Fe(2)            3.730e-09
   Fe+2                   3.406e-09   1.039e-09    -8.468    -8.983    -0.516
   FeCl+                  3.248e-10   2.397e-10    -9.488    -9.620    -0.132
   FeOH+                  2.546e-18   1.879e-18   -17.594   -17.726    -0.132
Fe(3)            9.996e-03
   FeCl+2                 5.523e-03   1.639e-03    -2.258    -2.785    -0.528
   Fe+3                   2.755e-03   3.246e-04    -2.560    -3.489    -0.929
   FeCl2+                 1.658e-03   1.224e-03    -2.780    -2.912    -0.132
   FeOH+2                 4.040e-05   1.199e-05    -4.394    -4.921    -0.528
   FeCl3                  1.929e-05   2.046e-05    -4.715    -4.689     0.025
   Fe2(OH)2+4             4.990e-07   3.868e-09    -6.302    -8.413    -2.111
   Fe(OH)2+               3.076e-08   2.270e-08    -7.512    -7.644    -0.132
   Fe3(OH)4+5             3.643e-11   1.834e-14   -10.439   -13.737    -3.298
   Fe(OH)3                1.577e-14   1.673e-14   -13.802   -13.777     0.025
   Fe(OH)4-               1.182e-22   8.725e-23   -21.927   -22.059    -0.132
H(0)             0.000e+00
   H2                     0.000e+00   0.000e+00   -41.727   -41.701     0.025
O(0)             1.956e-09
   O2                     9.778e-10   1.037e-09    -9.010    -8.984     0.025

------------------------------Saturation indices-------------------------------

	Phase               SI   log IAP   log K(298 K,   1 atm)

	Fe(OH)3(a)       -6.11*    -1.22    4.89  Fe(OH)3	 Delta_V  54.21 cm3/mol
	Goethite         -0.21*    -1.21   -1.00  FeOOH	 Delta_V  36.14 cm3/mol
	H2(g)           -38.55    -41.70   -3.15  H2
	H2O(g)           -1.51*    -0.00    1.51  H2O	 Delta_V  18.07 cm3/mol
	Hematite          1.59*    -2.42   -4.01  Fe2O3	 Delta_V  54.21 cm3/mol
	O2(g)            -6.09*    -8.98   -2.89  O2	 Delta_V  36.14 cm3/mol
	                      *  with Delta_V * (P - 1) / 2.3RT.

------------------
End of simulation.
------------------

------------------------------------
Reading input data for simulation 7.
------------------------------------

	use solution 2
	use equilibrium_phases 2
	use surface 2
	end
-----------------------------------------
Beginning of batch-reaction calculations.
-----------------------------------------

Reaction step 1.

Using solution 2.	Solution after simulation 6.
Using surface 2.	Surface assemblage after simulation 6.
Using pure phase assemblage 2.	Pure-phase assemblage after simulation 6.

-------------------------------Phase assemblage--------------------------------

                                                      Moles in assemblage
Phase               SI  log IAP  log K(T, P)   Initial       Final       Delta

Goethite         -0.21    -1.21     -1.00    0.000e+00           0   0.000e+00

------------------------------Surface composition------------------------------

Hfo           
	  1.755e-19  Surface + diffuse layer charge, eq
	  1.755e-19  Surface charge, eq
	undefined  sigma, C/m**2
	  6.563e-02  psi, V
	 -2.555e+00  -F*psi/RT
	  7.772e-02  exp(-F*psi/RT)
	  5.000e+04  specific area, m**2/mol Goethite
	  0.000e+00  m**2 for   0.000e+00 moles of Goethite

	Water in diffuse layer: 0.000e+00 kg,  0.0% of total DDL-water.

	Total moles in diffuse layer (excluding water)

	Element       	     Moles
	Cl            	  0.0000e+00
	Fe            	  0.0000e+00
	H             	  0.0000e+00
	O             	  0.0000e+00

Hfo_s         
	  0.000e+00  moles	[0.01 mol/(mol Goethite)]
	                                   Mole                     Log
	Species               Moles    Fraction    Molality    Molality

	Hfo_sOH2+         8.773e-20       0.000   8.770e-20     -19.057
	Hfo_sOH           3.338e-25       0.000   3.337e-25     -24.477
	Hfo_sO-           2.909e-32       0.000   2.908e-32     -31.536
	Hfo_sOFe+         1.743e-35       0.000   1.743e-35     -34.759

Hfo_w         
	  0.000e+00  moles	[0.1 mol/(mol Goethite)]
	                                   Mole                     Log
	Species               Moles    Fraction    Molality    Molality

	Hfo_wOH2+         8.773e-20       0.000   8.770e-20     -19.057
	Hfo_wOH           3.338e-25       0.000   3.337e-25     -24.477
	Hfo_wO-           2.909e-32       0.000   2.908e-32     -31.536
	Hfo_wOFe+         1.627e-37       0.000   1.626e-37     -36.789
	Hfo_wOFeOH        3.222e-44       0.000   3.221e-44     -43.492

-----------------------------Solution composition------------------------------

	Elements           Molality       Moles

	Cl                2.499e-01   2.500e-01
	Fe                9.996e-03   1.000e-02

----------------------------Description of solution----------------------------

                                       pH  =   0.761      Charge balance
                                       pe  =  18.515      Adjusted to redox equilibrium
       Specific Conductance (uS/cm, 25 oC) = 81447
                          Density (g/cm3)  =   1.00192
                        Activity of water  =   0.992
                           Ionic strength  =   2.548e-01
                       Mass of water (kg)  =   1.000e+00
                 Total alkalinity (eq/kg)  =  -2.399e-01
                    Total carbon (mol/kg)  =   0.000e+00
                       Total CO2 (mol/kg)  =   0.000e+00
                      Temperature (deg C)  =  25.00
                  Electrical balance (eq)  =  -9.178e-11
 Percent error, 100*(Cat-|An|)/(Cat+|An|)  =  -0.00
                               Iterations  =   1
                                  Total H  = 1.112724e+02
                                  Total O  = 5.552622e+01

----------------------------Distribution of species----------------------------

                                                   Log       Log         Log 
   Species                 Molality    Activity  Molality  Activity     Gamma

   H+                     2.200e-01   1.734e-01    -0.658    -0.761    -0.103
   OH-                    8.328e-14   5.726e-14   -13.079   -13.242    -0.163
   H2O                    5.551e+01   9.920e-01     1.744    -0.003     0.000
Cl               2.499e-01
   Cl-                    2.410e-01   1.672e-01    -0.618    -0.777    -0.159
   FeCl+2                 5.523e-03   1.639e-03    -2.258    -2.785    -0.528
   FeCl2+                 1.658e-03   1.224e-03    -2.780    -2.912    -0.132
   FeCl3                  1.929e-05   2.046e-05    -4.715    -4.689     0.025
   FeCl+                  3.248e-10   2.397e-10    -9.488    -9.620    -0.132
Fe(2)            3.730e-09
   Fe+2                   3.406e-09   1.039e-09    -8.468    -8.983    -0.516
   FeCl+                  3.248e-10   2.397e-10    -9.488    -9.620    -0.132
   FeOH+                  2.546e-18   1.879e-18   -17.594   -17.726    -0.132
Fe(3)            9.996e-03
   FeCl+2                 5.523e-03   1.639e-03    -2.258    -2.785    -0.528
   Fe+3                   2.755e-03   3.246e-04    -2.560    -3.489    -0.929
   FeCl2+                 1.658e-03   1.224e-03    -2.780    -2.912    -0.132
   FeOH+2                 4.040e-05   1.199e-05    -4.394    -4.921    -0.528
   FeCl3                  1.929e-05   2.046e-05    -4.715    -4.689     0.025
   Fe2(OH)2+4             4.990e-07   3.868e-09    -6.302    -8.413    -2.111
   Fe(OH)2+               3.076e-08   2.270e-08    -7.512    -7.644    -0.132
   Fe3(OH)4+5             3.643e-11   1.834e-14   -10.439   -13.737    -3.298
   Fe(OH)3                1.577e-14   1.673e-14   -13.802   -13.777     0.025
   Fe(OH)4-               1.182e-22   8.725e-23   -21.927   -22.059    -0.132
H(0)             0.000e+00
   H2                     0.000e+00   0.000e+00   -41.727   -41.701     0.025
O(0)             1.956e-09
   O2                     9.778e-10   1.037e-09    -9.010    -8.984     0.025

------------------------------Saturation indices-------------------------------

	Phase               SI   log IAP   log K(298 K,   1 atm)

	Fe(OH)3(a)       -6.11*    -1.22    4.89  Fe(OH)3	 Delta_V  54.21 cm3/mol
	Goethite         -0.21*    -1.21   -1.00  FeOOH	 Delta_V  36.14 cm3/mol
	H2(g)           -38.55    -41.70   -3.15  H2
	H2O(g)           -1.51*    -0.00    1.51  H2O	 Delta_V  18.07 cm3/mol
	Hematite          1.59*    -2.42   -4.01  Fe2O3	 Delta_V  54.21 cm3/mol
	O2(g)            -6.09*    -8.98   -2.89  O2	 Delta_V  36.14 cm3/mol
	                      *  with Delta_V * (P - 1) / 2.3RT.

------------------
End of simulation.
------------------

------------------------------------
Reading input data for simulation 8.
------------------------------------

	solution 1
	equilibrium_phases 1
		goethite	0.0	0.0
	reaction 1
		FeCl3	1.0
		0.25	moles
	surface 1
		diff
		Hfo_s	goethite	0.01	50000
		Hfo_w	goethite	0.1	50000
		equilibrate	solution 1
	end
-------------------------------------------
Beginning of initial solution calculations.
-------------------------------------------

Initial solution 1.	

-----------------------------Solution composition------------------------------

	Elements           Molality       Moles

	Pure water     

----------------------------Description of solution----------------------------

                                       pH  =   7.000    
                                       pe  =   4.000    
       Specific Conductance (uS/cm, 25 oC) = 0
                          Density (g/cm3)  =   0.99709
                        Activity of water  =   1.000
                           Ionic strength  =   1.001e-07
                       Mass of water (kg)  =   1.000e+00
                 Total alkalinity (eq/kg)  =   1.082e-10
                    Total carbon (mol/kg)  =   0.000e+00
                       Total CO2 (mol/kg)  =   0.000e+00
                      Temperature (deg C)  =  25.00
                  Electrical balance (eq)  =  -1.082e-10
 Percent error, 100*(Cat-|An|)/(Cat+|An|)  =  -0.05
                               Iterations  =   0
                                  Total H  = 1.110124e+02
                                  Total O  = 5.550622e+01

----------------------------Distribution of species----------------------------

                                                   Log       Log         Log 
   Species                 Molality    Activity  Molality  Activity     Gamma

   OH-                    1.002e-07   1.001e-07    -6.999    -6.999    -0.000
   H+                     1.001e-07   1.000e-07    -7.000    -7.000    -0.000
   H2O                    5.551e+01   1.000e+00     1.744     0.000     0.000
H(0)             1.416e-25
   H2                     7.079e-26   7.079e-26   -25.150   -25.150     0.000
O(0)             0.000e+00
   O2                     0.000e+00   0.000e+00   -42.080   -42.080     0.000

------------------------------Saturation indices-------------------------------

	Phase               SI   log IAP   log K(298 K,   1 atm)

	H2(g)           -22.00    -25.15   -3.15  H2
	H2O(g)           -1.51*     0.00    1.51  H2O	 Delta_V  18.07 cm3/mol
	O2(g)           -39.19*   -42.08   -2.89  O2	 Delta_V  36.14 cm3/mol
	                      *  with Delta_V * (P - 1) / 2.3RT.

------------------------------------------------------
Beginning of initial surface-composition calculations.
------------------------------------------------------

Surface 1.	

Hfo           
	  3.876e-30  Surface + diffuse layer charge, eq
	  3.876e-30  Surface charge, eq
	undefined  sigma, C/m**2
	  0.000e+00  psi, V
	 -0.000e+00  -F*psi/RT
	  1.000e+00  exp(-F*psi/RT)
	  5.000e+04  specific area, m**2/mol Goethite
	  0.000e+00  m**2 for   0.000e+00 moles of Goethite

	Water in diffuse layer: 0.000e+00 kg,  0.0% of total DDL-water.

	Total moles in diffuse layer (excluding water)

	Element       	     Moles
	H             	  0.0000e+00
	O             	  0.0000e+00

Hfo_s         
	  0.000e+00  moles	[0.01 mol/(mol Goethite)]
	                                   Mole                     Log
	Species               Moles    Fraction    Molality    Molality

	Hfo_sOH2+         1.950e-30       0.000   1.950e-30     -29.710
	Hfo_sOH           1.000e-30       0.000   1.000e-30     -30.000
	Hfo_sO-           1.175e-32       0.000   1.175e-32     -31.930

Hfo_w         
	  0.000e+00  moles	[0.1 mol/(mol Goethite)]
	                                   Mole                     Log
	Species               Moles    Fraction    Molality    Molality

	Hfo_wOH2+         1.950e-30       0.000   1.950e-30     -29.710
	Hfo_wOH           1.000e-30       0.000   1.000e-30     -30.000
	Hfo_wO-           1.175e-32       0.000   1.175e-32     -31.930

-----------------------------------------
Beginning of batch-reaction calculations.
-----------------------------------------

Reaction step 1.

Using solution 1.	
Using surface 1.	Surface assemblage after simulation 8.
Using pure phase assemblage 1.	
Using reaction 1.	

Reaction 1.	Irreversible reaction defined in simulation 8.

	  2.500e-01 moles of the following reaction have been added:

	                 Relative
	Reactant            moles

	FeCl3                1.00000

	                 Relative
	Element             moles
	Cl                   3.00000
	Fe                   1.00000

-------------------------------Phase assemblage--------------------------------

                                                      Moles in assemblage
Phase               SI  log IAP  log K(T, P)   Initial       Final       Delta

Goethite         -0.00    -1.00     -1.00    0.000e+00   1.237e-01   1.237e-01

------------------------------Surface composition------------------------------

Hfo           
	  6.981e-12  Surface + diffuse layer charge, eq
	  1.361e-02  Surface charge, eq
	  2.123e-01  sigma, C/m**2
	  8.278e-02  psi, V
	 -3.222e+00  -F*psi/RT
	  3.987e-02  exp(-F*psi/RT)
	  5.000e+04  specific area, m**2/mol Goethite
	  6.187e+03  m**2 for   1.237e-01 moles of Goethite

	Water in diffuse layer: 6.187e-02 kg, 100.0% of total DDL-water.

	Total moles in diffuse layer (excluding water)

	Element       	     Moles
	Cl            	  5.3751e-02
	Fe            	  6.8158e-03
	H             	  1.9708e-02
	O             	  8.3391e-06

Hfo_s         
	  1.237e-03  moles	[0.01 mol/(mol Goethite)]
	                                   Mole                     Log
	Species               Moles    Fraction    Molality    Molality

	Hfo_sOH2+         1.237e-03       1.000   1.243e-03      -2.906
	Hfo_sOH           6.213e-09       0.000   6.241e-09      -8.205
	Hfo_sO-           7.146e-16       0.000   7.178e-16     -15.144
	Hfo_sOFe+         2.918e-19       0.000   2.932e-19     -18.533

Hfo_w         
	  1.237e-02  moles	[0.1 mol/(mol Goethite)]
	                                   Mole                     Log
	Species               Moles    Fraction    Molality    Molality

	Hfo_wOH2+         1.237e-02       1.000   1.243e-02      -1.906
	Hfo_wOH           6.213e-08       0.000   6.241e-08      -7.205
	Hfo_wO-           7.146e-15       0.000   7.178e-15     -14.144
	Hfo_wOFe+         2.724e-20       0.000   2.736e-20     -19.563
	Hfo_wOFeOH        7.052e-27       0.000   7.083e-27     -26.150

-----------------------------Solution composition------------------------------

	Elements           Molality       Moles

	Cl                6.994e-01   6.962e-01
	Fe                1.200e-01   1.194e-01

----------------------------Description of solution----------------------------

                                       pH  =   0.591      Charge balance
                                       pe  =  18.831      Adjusted to redox equilibrium
       Specific Conductance (uS/cm, 25 oC) = 122930
                          Density (g/cm3)  =   1.01426
                        Activity of water  =   0.983
                           Ionic strength  =   6.862e-01
                       Mass of water (kg)  =   9.955e-01
                 Total alkalinity (eq/kg)  =  -5.794e-01
                    Total carbon (mol/kg)  =   0.000e+00
                       Total CO2 (mol/kg)  =   0.000e+00
                      Temperature (deg C)  =  25.00
                  Electrical balance (eq)  =  -1.082e-10
 Percent error, 100*(Cat-|An|)/(Cat+|An|)  =  -0.00
                               Iterations  =   3
                                  Total H  = 1.108554e+02
                                  Total O  = 5.525872e+01

----------------------------Distribution of species----------------------------

                                                   Log       Log         Log 
   Species                 Molality    Activity  Molality  Activity     Gamma

   H+                     3.396e-01   2.562e-01    -0.469    -0.591    -0.122
   OH-                    6.316e-14   3.840e-14   -13.200   -13.416    -0.216
   H2O                    5.551e+01   9.826e-01     1.744    -0.008     0.000
Cl               6.994e-01
   Cl-                    5.615e-01   3.495e-01    -0.251    -0.457    -0.206
   FeCl+2                 5.862e-02   1.838e-02    -1.232    -1.736    -0.504
   FeCl2+                 3.835e-02   2.870e-02    -1.416    -1.542    -0.126
   FeCl3                  8.566e-04   1.003e-03    -3.067    -2.999     0.069
   FeCl+                  1.734e-09   1.298e-09    -8.761    -8.887    -0.126
Fe(2)            1.351e-08
   Fe+2                   1.178e-08   2.690e-09    -7.929    -8.570    -0.641
   FeCl+                  1.734e-09   1.298e-09    -8.761    -8.887    -0.126
   FeOH+                  4.360e-18   3.263e-18   -17.360   -17.486    -0.126
Fe(3)            1.200e-01
   FeCl+2                 5.862e-02   1.838e-02    -1.232    -1.736    -0.504
   FeCl2+                 3.835e-02   2.870e-02    -1.416    -1.542    -0.126
   Fe+3                   2.200e-02   1.742e-03    -1.658    -2.759    -1.101
   FeCl3                  8.566e-04   1.003e-03    -3.067    -2.999     0.069
   FeOH+2                 1.375e-04   4.313e-05    -3.862    -4.365    -0.504
   Fe2(OH)2+4             5.176e-06   5.007e-08    -5.286    -7.300    -2.014
   Fe(OH)2+               7.320e-08   5.478e-08    -7.136    -7.261    -0.126
   Fe3(OH)4+5             8.047e-10   5.730e-13    -9.094   -12.242    -3.147
   Fe(OH)3                2.311e-14   2.706e-14   -13.636   -13.568     0.069
   Fe(OH)4-               1.265e-22   9.467e-23   -21.898   -22.024    -0.126
H(0)             0.000e+00
   H2                     0.000e+00   0.000e+00   -42.064   -41.995     0.069
O(0)             6.722e-09
   O2                     3.361e-09   3.937e-09    -8.474    -8.405     0.069

------------------------------Saturation indices-------------------------------

	Phase               SI   log IAP   log K(298 K,   1 atm)

	Fe(OH)3(a)       -5.90*    -1.01    4.89  Fe(OH)3	 Delta_V  54.21 cm3/mol
	Goethite         -0.00*    -1.00   -1.00  FeOOH	 Delta_V  36.14 cm3/mol
	H2(g)           -38.85    -42.00   -3.15  H2
	H2O(g)           -1.52*    -0.01    1.51  H2O	 Delta_V  18.07 cm3/mol
	Hematite          2.02*    -1.99   -4.01  Fe2O3	 Delta_V  54.21 cm3/mol
	O2(g)            -5.51*    -8.40   -2.89  O2	 Delta_V  36.14 cm3/mol
	                      *  with Delta_V * (P - 1) / 2.3RT.

------------------
End of simulation.
------------------

------------------------------------
Reading input data for simulation 9.
------------------------------------

	solution 1
	equilibrium_phases 1-2
		goethite	0.0	0.01
	save solution 1-2
	end
-------------------------------------------
Beginning of initial solution calculations.
-------------------------------------------

Initial solution 1.	

-----------------------------Solution composition------------------------------

	Elements           Molality       Moles

	Pure water     

----------------------------Description of solution----------------------------

                                       pH  =   7.000    
                                       pe  =   4.000    
       Specific Conductance (uS/cm, 25 oC) = 0
                          Density (g/cm3)  =   0.99709
                        Activity of water  =   1.000
                           Ionic strength  =   1.001e-07
                       Mass of water (kg)  =   1.000e+00
                 Total alkalinity (eq/kg)  =   1.082e-10
                    Total carbon (mol/kg)  =   0.000e+00
                       Total CO2 (mol/kg)  =   0.000e+00
                      Temperature (deg C)  =  25.00
                  Electrical balance (eq)  =  -1.082e-10
 Percent error, 100*(Cat-|An|)/(Cat+|An|)  =  -0.05
                               Iterations  =   0
                                  Total H  = 1.110124e+02
                                  Total O  = 5.550622e+01

----------------------------Distribution of species----------------------------

                                                   Log       Log         Log 
   Species                 Molality    Activity  Molality  Activity     Gamma

   OH-                    1.002e-07   1.001e-07    -6.999    -6.999    -0.000
   H+                     1.001e-07   1.000e-07    -7.000    -7.000    -0.000
   H2O                    5.551e+01   1.000e+00     1.744     0.000     0.000
H(0)             1.416e-25
   H2                     7.079e-26   7.079e-26   -25.150   -25.150     0.000
O(0)             0.000e+00
   O2                     0.000e+00   0.000e+00   -42.080   -42.080     0.000

------------------------------Saturation indices-------------------------------

	Phase               SI   log IAP   log K(298 K,   1 atm)

	H2(g)           -22.00    -25.15   -3.15  H2
	H2O(g)           -1.51*     0.00    1.51  H2O	 Delta_V  18.07 cm3/mol
	O2(g)           -39.19*   -42.08   -2.89  O2	 Delta_V  36.14 cm3/mol
	                      *  with Delta_V * (P - 1) / 2.3RT.

-----------------------------------------
Beginning of batch-reaction calculations.
-----------------------------------------

Reaction step 1.

Using solution 1.	
Using pure phase assemblage 1.	

-------------------------------Phase assemblage--------------------------------

                                                      Moles in assemblage
Phase               SI  log IAP  log K(T, P)   Initial       Final       Delta

Goethite          0.00    -1.00     -1.00    1.000e-02   1.000e-02  -5.487e-14

-----------------------------Solution composition------------------------------

	Elements           Molality       Moles

	Fe                5.488e-14   5.488e-14

----------------------------Description of solution----------------------------

                                       pH  =   7.000      Charge balance
                                       pe  =   5.267      Adjusted to redox equilibrium
       Specific Conductance (uS/cm, 25 oC) = 0
                          Density (g/cm3)  =   0.99709
                        Activity of water  =   1.000
                           Ionic strength  =   1.001e-07
                       Mass of water (kg)  =   1.000e+00
                 Total alkalinity (eq/kg)  =   1.083e-10
                    Total carbon (mol/kg)  =   0.000e+00
                       Total CO2 (mol/kg)  =   0.000e+00
                      Temperature (deg C)  =  25.00
                  Electrical balance (eq)  =  -1.082e-10
 Percent error, 100*(Cat-|An|)/(Cat+|An|)  =  -0.05
                               Iterations  =  14
                                  Total H  = 1.110124e+02
                                  Total O  = 5.550622e+01

----------------------------Distribution of species----------------------------

                                                   Log       Log         Log 
   Species                 Molality    Activity  Molality  Activity     Gamma

   OH-                    1.001e-07   1.001e-07    -6.999    -7.000    -0.000
   H+                     1.000e-07   1.000e-07    -7.000    -7.000    -0.000
   H2O                    5.551e+01   1.000e+00     1.744    -0.000     0.000
Fe(2)            5.690e-15
   Fe+2                   5.672e-15   5.663e-15   -14.246   -14.247    -0.001
   FeOH+                  1.792e-17   1.791e-17   -16.747   -16.747    -0.000
Fe(3)            4.919e-14
   Fe(OH)3                2.754e-14   2.754e-14   -13.560   -13.560     0.000
   Fe(OH)2+               2.139e-14   2.138e-14   -13.670   -13.670    -0.000
   Fe(OH)4-               2.513e-16   2.512e-16   -15.600   -15.600    -0.000
   FeOH+2                 6.466e-18   6.457e-18   -17.189   -17.190    -0.001
   Fe+3                   1.003e-22   1.000e-22   -21.999   -22.000    -0.001
   Fe2(OH)2+4             1.129e-33   1.122e-33   -32.947   -32.950    -0.003
   Fe3(OH)4+5             0.000e+00   0.000e+00   -44.296   -44.300    -0.004
H(0)             4.142e-28
   H2                     2.071e-28   2.071e-28   -27.684   -27.684     0.000
O(0)             1.944e-37
   O2                     9.721e-38   9.721e-38   -37.012   -37.012     0.000

------------------------------Saturation indices-------------------------------

	Phase               SI   log IAP   log K(298 K,   1 atm)

	Fe(OH)3(a)       -5.89*    -1.00    4.89  Fe(OH)3	 Delta_V  54.21 cm3/mol
	Goethite          0.00*    -1.00   -1.00  FeOOH	 Delta_V  36.14 cm3/mol
	H2(g)           -24.53    -27.68   -3.15  H2
	H2O(g)           -1.51*    -0.00    1.51  H2O	 Delta_V  18.07 cm3/mol
	Hematite          2.01*    -2.00   -4.01  Fe2O3	 Delta_V  54.21 cm3/mol
	O2(g)           -34.12*   -37.01   -2.89  O2	 Delta_V  36.14 cm3/mol
	                      *  with Delta_V * (P - 1) / 2.3RT.

------------------
End of simulation.
------------------

-------------------------------------
Reading input data for simulation 10.
-------------------------------------

	reaction 1
		HCl	1.0
		0.25	moles
	surface 1-2
		no_edl
		Hfo_s	goethite	0.01	50000
		Hfo_w	goethite	0.1	50000
		equilibrate	solution 1
	use solution 1
	use equilibrium_phases 1
	use reaction 1
	use surface 1
	save solution 2
	save equilibrium_phases 2
	save surface 2
	end
------------------------------------------------------
Beginning of initial surface-composition calculations.
------------------------------------------------------

Surface 1.	

Hfo           
	  7.199e-04  Surface charge, eq
Hfo_s         
	  1.000e-04  moles
	                                   Mole                     Log
	Species               Moles    Fraction    Molality    Molality

	Hfo_sOH2+         6.584e-05       0.658   6.584e-05      -4.182
	Hfo_sOH           3.377e-05       0.338   3.377e-05      -4.472
	Hfo_sO-           3.967e-07       0.004   3.967e-07      -6.402
	Hfo_sOFe+         2.146e-13       0.000   2.146e-13     -12.668

Hfo           
	  7.199e-04  Surface charge, eq
Hfo_w         
	  1.000e-03  moles
	                                   Mole                     Log
	Species               Moles    Fraction    Molality    Molality

	Hfo_wOH2+         6.584e-04       0.658   6.584e-04      -3.182
	Hfo_wOH           3.377e-04       0.338   3.377e-04      -3.472
	Hfo_wO-           3.967e-06       0.004   3.967e-06      -5.402
	Hfo_wOFe+         2.002e-14       0.000   2.002e-14     -13.698
	Hfo_wOFeOH        5.389e-16       0.000   5.389e-16     -15.268

-----------------------------------------
Beginning of batch-reaction calculations.
-----------------------------------------

Reaction step 1.

Using solution 1.	Solution after simulation 9.
Using surface 1.	Surface assemblage after simulation 10.
Using pure phase assemblage 1.	
Using reaction 1.	

Reaction 1.	Irreversible reaction defined in simulation 10.

	  2.500e-01 moles of the following reaction have been added:

	                 Relative
	Reactant            moles

	HCl                  1.00000

	                 Relative
	Element             moles
	Cl                   1.00000
	H                    1.00000

-------------------------------Phase assemblage--------------------------------

                                                      Moles in assemblage
Phase               SI  log IAP  log K(T, P)   Initial       Final       Delta

Goethite         -0.22    -1.22     -1.00    1.000e-02           0  -1.000e-02

------------------------------Surface composition------------------------------

Hfo           
	  6.212e-26  Surface charge, eq
Hfo_s         
	  0.000e+00  moles
	                                   Mole                     Log
	Species               Moles    Fraction    Molality    Molality

	Hfo_sOH2+         3.106e-26       0.000   3.105e-26     -25.508
	Hfo_sOH           9.155e-33       0.000   9.151e-33     -32.039
	Hfo_sO-           6.181e-41       0.000   6.179e-41     -40.209
	Hfo_sOFe+         5.861e-42       0.000   5.859e-42     -41.232

Hfo           
	  6.212e-26  Surface charge, eq
Hfo_w         
	  0.000e+00  moles
	                                   Mole                     Log
	Species               Moles    Fraction    Molality    Molality

	Hfo_wOH2+         3.106e-26       0.000   3.105e-26     -25.508
	Hfo_wOH           9.155e-33       0.000   9.151e-33     -32.039
	Hfo_wO-           6.181e-41       0.000   6.179e-41     -40.209
	Hfo_wOFe+         5.470e-44       0.000   5.468e-44     -43.262
	Hfo_wOFeOH        8.393e-52       0.000   8.390e-52     -51.076

-----------------------------Solution composition------------------------------

	Elements           Molality       Moles

	Cl                2.499e-01   2.500e-01
	Fe                9.996e-03   1.000e-02

----------------------------Description of solution----------------------------

                                       pH  =   0.759      Charge balance
                                       pe  =  18.534      Adjusted to redox equilibrium
       Specific Conductance (uS/cm, 25 oC) = 81661
                          Density (g/cm3)  =   1.00192
                        Activity of water  =   0.992
                           Ionic strength  =   2.552e-01
                       Mass of water (kg)  =   1.000e+00
                 Total alkalinity (eq/kg)  =  -2.406e-01
                    Total carbon (mol/kg)  =   0.000e+00
                       Total CO2 (mol/kg)  =   0.000e+00
                      Temperature (deg C)  =  25.00
                  Electrical balance (eq)  =   7.199e-04
 Percent error, 100*(Cat-|An|)/(Cat+|An|)  =   0.15
                               Iterations  =  19
                                  Total H  = 1.112732e+02
                                  Total O  = 5.552622e+01

----------------------------Distribution of species----------------------------

                                                   Log       Log         Log 
   Species                 Molality    Activity  Molality  Activity     Gamma

   H+                     2.207e-01   1.740e-01    -0.656    -0.759    -0.103
   OH-                    8.303e-14   5.707e-14   -13.081   -13.244    -0.163
   H2O                    5.551e+01   9.920e-01     1.744    -0.003     0.000
Cl               2.499e-01
   Cl-                    2.410e-01   1.671e-01    -0.618    -0.777    -0.159
   FeCl+2                 5.523e-03   1.638e-03    -2.258    -2.786    -0.528
   FeCl2+                 1.657e-03   1.223e-03    -2.781    -2.913    -0.132
   FeCl3                  1.928e-05   2.044e-05    -4.715    -4.689     0.026
   FeCl+                  3.104e-10   2.291e-10    -9.508    -9.640    -0.132
Fe(2)            3.567e-09
   Fe+2                   3.256e-09   9.929e-10    -8.487    -9.003    -0.516
   FeCl+                  3.104e-10   2.291e-10    -9.508    -9.640    -0.132
   FeOH+                  2.425e-18   1.790e-18   -17.615   -17.747    -0.132
Fe(3)            9.996e-03
   FeCl+2                 5.523e-03   1.638e-03    -2.258    -2.786    -0.528
   Fe+3                   2.756e-03   3.246e-04    -2.560    -3.489    -0.929
   FeCl2+                 1.657e-03   1.223e-03    -2.781    -2.913    -0.132
   FeOH+2                 4.027e-05   1.195e-05    -4.395    -4.923    -0.528
   FeCl3                  1.928e-05   2.044e-05    -4.715    -4.689     0.026
   Fe2(OH)2+4             4.961e-07   3.842e-09    -6.304    -8.415    -2.111
   Fe(OH)2+               3.056e-08   2.255e-08    -7.515    -7.647    -0.132
   Fe3(OH)4+5             3.600e-11   1.810e-14   -10.444   -13.742    -3.299
   Fe(OH)3                1.562e-14   1.656e-14   -13.806   -13.781     0.026
   Fe(OH)4-               1.167e-22   8.612e-23   -21.933   -22.065    -0.132
H(0)             0.000e+00
   H2                     0.000e+00   0.000e+00   -41.763   -41.738     0.026
O(0)             2.312e-09
   O2                     1.156e-09   1.226e-09    -8.937    -8.912     0.026

------------------------------Saturation indices-------------------------------

	Phase               SI   log IAP   log K(298 K,   1 atm)

	Fe(OH)3(a)       -6.11*    -1.22    4.89  Fe(OH)3	 Delta_V  54.21 cm3/mol
	Goethite         -0.22*    -1.22   -1.00  FeOOH	 Delta_V  36.14 cm3/mol
	H2(g)           -38.59    -41.74   -3.15  H2
	H2O(g)           -1.51*    -0.00    1.51  H2O	 Delta_V  18.07 cm3/mol
	Hematite          1.58*    -2.43   -4.01  Fe2O3	 Delta_V  54.21 cm3/mol
	O2(g)            -6.02*    -8.91   -2.89  O2	 Delta_V  36.14 cm3/mol
	                      *  with Delta_V * (P - 1) / 2.3RT.

------------------
End of simulation.
------------------

-------------------------------------
Reading input data for simulation 11.
-------------------------------------

	use solution 2
	use equilibrium_phases 2
	use surface 2
	end
-----------------------------------------
Beginning of batch-reaction calculations.
-----------------------------------------

Reaction step 1.

Using solution 2.	Solution after simulation 10.
Using surface 2.	Surface assemblage after simulation 10.
Using pure phase assemblage 2.	Pure-phase assemblage after simulation 10.

-------------------------------Phase assemblage--------------------------------

                                                      Moles in assemblage
Phase               SI  log IAP  log K(T, P)   Initial       Final       Delta

Goethite         -0.22    -1.22     -1.00    0.000e+00           0   0.000e+00

------------------------------Surface composition------------------------------

Hfo           
	  6.785e-24  Surface charge, eq
Hfo_s         
	  0.000e+00  moles
	                                   Mole                     Log
	Species               Moles    Fraction    Molality    Molality

	Hfo_sOH2+         3.393e-24       0.000   3.392e-24     -23.470
	Hfo_sOH           1.000e-30       0.000   9.996e-31     -30.000
	Hfo_sO-           6.752e-39       0.000   6.750e-39     -38.171
	Hfo_sOFe+         6.402e-40       0.000   6.400e-40     -39.194

Hfo           
	  6.785e-24  Surface charge, eq
Hfo_w         
	  0.000e+00  moles
	                                   Mole                     Log
	Species               Moles    Fraction    Molality    Molality

	Hfo_wOH2+         3.393e-24       0.000   3.392e-24     -23.470
	Hfo_wOH           1.000e-30       0.000   9.996e-31     -30.000
	Hfo_wO-           6.752e-39       0.000   6.750e-39     -38.171
	Hfo_wOFe+         5.975e-42       0.000   5.973e-42     -41.224
	Hfo_wOFeOH        9.169e-50       0.000   9.165e-50     -49.038

-----------------------------Solution composition------------------------------

	Elements           Molality       Moles

	Cl                2.499e-01   2.500e-01
	Fe                9.996e-03   1.000e-02

----------------------------Description of solution----------------------------

                                       pH  =   0.759      Charge balance
                                       pe  =  18.534      Adjusted to redox equilibrium
       Specific Conductance (uS/cm, 25 oC) = 81661
                          Density (g/cm3)  =   1.00192
                        Activity of water  =   0.992
                           Ionic strength  =   2.552e-01
                       Mass of water (kg)  =   1.000e+00
                 Total alkalinity (eq/kg)  =  -2.406e-01
                    Total carbon (mol/kg)  =   0.000e+00
                       Total CO2 (mol/kg)  =   0.000e+00
                      Temperature (deg C)  =  25.00
                  Electrical balance (eq)  =   7.199e-04
 Percent error, 100*(Cat-|An|)/(Cat+|An|)  =   0.15
                               Iterations  =   1
                                  Total H  = 1.112732e+02
                                  Total O  = 5.552622e+01

----------------------------Distribution of species----------------------------

                                                   Log       Log         Log 
   Species                 Molality    Activity  Molality  Activity     Gamma

   H+                     2.207e-01   1.740e-01    -0.656    -0.759    -0.103
   OH-                    8.303e-14   5.707e-14   -13.081   -13.244    -0.163
   H2O                    5.551e+01   9.920e-01     1.744    -0.003     0.000
Cl               2.499e-01
   Cl-                    2.410e-01   1.671e-01    -0.618    -0.777    -0.159
   FeCl+2                 5.523e-03   1.638e-03    -2.258    -2.786    -0.528
   FeCl2+                 1.657e-03   1.223e-03    -2.781    -2.913    -0.132
   FeCl3                  1.928e-05   2.044e-05    -4.715    -4.689     0.026
   FeCl+                  3.104e-10   2.291e-10    -9.508    -9.640    -0.132
Fe(2)            3.567e-09
   Fe+2                   3.256e-09   9.929e-10    -8.487    -9.003    -0.516
   FeCl+                  3.104e-10   2.291e-10    -9.508    -9.640    -0.132
   FeOH+                  2.425e-18   1.790e-18   -17.615   -17.747    -0.132
Fe(3)            9.996e-03
   FeCl+2                 5.523e-03   1.638e-03    -2.258    -2.786    -0.528
   Fe+3                   2.756e-03   3.246e-04    -2.560    -3.489    -0.929
   FeCl2+                 1.657e-03   1.223e-03    -2.781    -2.913    -0.132
   FeOH+2                 4.027e-05   1.195e-05    -4.395    -4.923    -0.528
   FeCl3                  1.928e-05   2.044e-05    -4.715    -4.689     0.026
   Fe2(OH)2+4             4.961e-07   3.842e-09    -6.304    -8.415    -2.111
   Fe(OH)2+               3.056e-08   2.255e-08    -7.515    -7.647    -0.132
   Fe3(OH)4+5             3.600e-11   1.810e-14   -10.444   -13.742    -3.299
   Fe(OH)3                1.562e-14   1.656e-14   -13.806   -13.781     0.026
   Fe(OH)4-               1.167e-22   8.612e-23   -21.933   -22.065    -0.132
H(0)             0.000e+00
   H2                     0.000e+00   0.000e+00   -41.763   -41.738     0.026
O(0)             2.312e-09
   O2                     1.156e-09   1.226e-09    -8.937    -8.912     0.026

------------------------------Saturation indices-------------------------------

	Phase               SI   log IAP   log K(298 K,   1 atm)

	Fe(OH)3(a)       -6.11*    -1.22    4.89  Fe(OH)3	 Delta_V  54.21 cm3/mol
	Goethite         -0.22*    -1.22   -1.00  FeOOH	 Delta_V  36.14 cm3/mol
	H2(g)           -38.59    -41.74   -3.15  H2
	H2O(g)           -1.51*    -0.00    1.51  H2O	 Delta_V  18.07 cm3/mol
	Hematite          1.58*    -2.43   -4.01  Fe2O3	 Delta_V  54.21 cm3/mol
	O2(g)            -6.02*    -8.91   -2.89  O2	 Delta_V  36.14 cm3/mol
	                      *  with Delta_V * (P - 1) / 2.3RT.

------------------
End of simulation.
------------------

-------------------------------------
Reading input data for simulation 12.
-------------------------------------

	solution 1
	equilibrium_phases 1
		goethite	0.0	0.0
	reaction 1
		FeCl3	1.0
		0.25	moles
	surface 1
		no_edl
		Hfo_s	goethite	0.01	50000
		Hfo_w	goethite	0.1	50000
		equilibrate	solution 1
	end
-------------------------------------------
Beginning of initial solution calculations.
-------------------------------------------

Initial solution 1.	

-----------------------------Solution composition------------------------------

	Elements           Molality       Moles

	Pure water     

----------------------------Description of solution----------------------------

                                       pH  =   7.000    
                                       pe  =   4.000    
       Specific Conductance (uS/cm, 25 oC) = 0
                          Density (g/cm3)  =   0.99709
                        Activity of water  =   1.000
                           Ionic strength  =   1.001e-07
                       Mass of water (kg)  =   1.000e+00
                 Total alkalinity (eq/kg)  =   1.082e-10
                    Total carbon (mol/kg)  =   0.000e+00
                       Total CO2 (mol/kg)  =   0.000e+00
                      Temperature (deg C)  =  25.00
                  Electrical balance (eq)  =  -1.082e-10
 Percent error, 100*(Cat-|An|)/(Cat+|An|)  =  -0.05
                               Iterations  =   0
                                  Total H  = 1.110124e+02
                                  Total O  = 5.550622e+01

----------------------------Distribution of species----------------------------

                                                   Log       Log         Log 
   Species                 Molality    Activity  Molality  Activity     Gamma

   OH-                    1.002e-07   1.001e-07    -6.999    -6.999    -0.000
   H+                     1.001e-07   1.000e-07    -7.000    -7.000    -0.000
   H2O                    5.551e+01   1.000e+00     1.744     0.000     0.000
H(0)             1.416e-25
   H2                     7.079e-26   7.079e-26   -25.150   -25.150     0.000
O(0)             0.000e+00
   O2                     0.000e+00   0.000e+00   -42.080   -42.080     0.000

------------------------------Saturation indices-------------------------------

	Phase               SI   log IAP   log K(298 K,   1 atm)

	H2(g)           -22.00    -25.15   -3.15  H2
	H2O(g)           -1.51*     0.00    1.51  H2O	 Delta_V  18.07 cm3/mol
	O2(g)           -39.19*   -42.08   -2.89  O2	 Delta_V  36.14 cm3/mol
	                      *  with Delta_V * (P - 1) / 2.3RT.

------------------------------------------------------
Beginning of initial surface-composition calculations.
------------------------------------------------------

Surface 1.	

Hfo           
	  3.876e-30  Surface charge, eq
Hfo_s         
	  0.000e+00  moles
	                                   Mole                     Log
	Species               Moles    Fraction    Molality    Molality

	Hfo_sOH2+         1.950e-30       0.000   1.950e-30     -29.710
	Hfo_sOH           1.000e-30       0.000   1.000e-30     -30.000
	Hfo_sO-           1.175e-32       0.000   1.175e-32     -31.930

Hfo           
	  3.876e-30  Surface charge, eq
Hfo_w         
	  0.000e+00  moles
	                                   Mole                     Log
	Species               Moles    Fraction    Molality    Molality

	Hfo_wOH2+         1.950e-30       0.000   1.950e-30     -29.710
	Hfo_wOH           1.000e-30       0.000   1.000e-30     -30.000
	Hfo_wO-           1.175e-32       0.000   1.175e-32     -31.930

-----------------------------------------
Beginning of batch-reaction calculations.
-----------------------------------------

Reaction step 1.

Using solution 1.	
Using surface 1.	Surface assemblage after simulation 12.
Using pure phase assemblage 1.	
Using reaction 1.	

Reaction 1.	Irreversible reaction defined in simulation 12.

	  2.500e-01 moles of the following reaction have been added:

	                 Relative
	Reactant            moles

	FeCl3                1.00000

	                 Relative
	Element             moles
	Cl                   3.00000
	Fe                   1.00000

-------------------------------Phase assemblage--------------------------------

                                                      Moles in assemblage
Phase               SI  log IAP  log K(T, P)   Initial       Final       Delta

Goethite         -0.00    -1.00     -1.00    0.000e+00   1.186e-01   1.186e-01

------------------------------Surface composition------------------------------

Hfo           
	  1.305e-02  Surface charge, eq
Hfo_s         
	  1.186e-03  moles
	                                   Mole                     Log
	Species               Moles    Fraction    Molality    Molality

	Hfo_sOH2+         1.186e-03       1.000   1.191e-03      -2.924
	Hfo_sOH           2.346e-10       0.000   2.356e-10      -9.628
	Hfo_sO-           1.063e-18       0.000   1.068e-18     -17.971
	Hfo_sOFe+         2.768e-19       0.000   2.780e-19     -18.556

Hfo           
	  1.305e-02  Surface charge, eq
Hfo_w         
	  1.186e-02  moles
	                                   Mole                     Log
	Species               Moles    Fraction    Molality    Molality

	Hfo_wOH2+         1.186e-02       1.000   1.191e-02      -1.924
	Hfo_wOH           2.346e-09       0.000   2.356e-09      -8.628
	Hfo_wO-           1.063e-17       0.000   1.068e-17     -16.971
	Hfo_wOFe+         2.584e-20       0.000   2.595e-20     -19.586
	Hfo_wOFeOH        2.633e-28       0.000   2.645e-28     -27.578

-----------------------------Solution composition------------------------------

	Elements           Molality       Moles

	Cl                7.532e-01   7.500e-01
	Fe                1.320e-01   1.314e-01

----------------------------Description of solution----------------------------

                                       pH  =   0.586      Charge balance
                                       pe  =  18.842      Adjusted to redox equilibrium
       Specific Conductance (uS/cm, 25 oC) = 124879
                          Density (g/cm3)  =   1.01562
                        Activity of water  =   0.982
                           Ionic strength  =   7.247e-01
                       Mass of water (kg)  =   9.957e-01
                 Total alkalinity (eq/kg)  =  -6.082e-01
                    Total carbon (mol/kg)  =   0.000e+00
                       Total CO2 (mol/kg)  =   0.000e+00
                      Temperature (deg C)  =  25.00
                  Electrical balance (eq)  =  -1.305e-02
 Percent error, 100*(Cat-|An|)/(Cat+|An|)  =  -1.11
                               Iterations  =  26
                                  Total H  = 1.108808e+02
                                  Total O  = 5.526900e+01

----------------------------Distribution of species----------------------------

                                                   Log       Log         Log 
   Species                 Molality    Activity  Molality  Activity     Gamma

   H+                     3.444e-01   2.593e-01    -0.463    -0.586    -0.123
   OH-                    6.279e-14   3.791e-14   -13.202   -13.421    -0.219
   H2O                    5.551e+01   9.817e-01     1.744    -0.008     0.000
Cl               7.532e-01
   Cl-                    5.982e-01   3.703e-01    -0.223    -0.431    -0.208
   FeCl+2                 6.304e-02   2.022e-02    -1.200    -1.694    -0.494
   FeCl2+                 4.443e-02   3.344e-02    -1.352    -1.476    -0.123
   FeCl3                  1.048e-03   1.238e-03    -2.980    -2.907     0.072
   FeCl+                  1.852e-09   1.393e-09    -8.732    -8.856    -0.123
Fe(2)            1.397e-08
   Fe+2                   1.212e-08   2.726e-09    -7.917    -8.564    -0.648
   FeCl+                  1.852e-09   1.393e-09    -8.732    -8.856    -0.123
   FeOH+                  4.338e-18   3.265e-18   -17.363   -17.486    -0.123
Fe(3)            1.320e-01
   FeCl+2                 6.304e-02   2.022e-02    -1.200    -1.694    -0.494
   FeCl2+                 4.443e-02   3.344e-02    -1.352    -1.476    -0.123
   Fe+3                   2.329e-02   1.808e-03    -1.633    -2.743    -1.110
   FeCl3                  1.048e-03   1.238e-03    -2.980    -2.907     0.072
   FeOH+2                 1.378e-04   4.420e-05    -3.861    -4.355    -0.494
   Fe2(OH)2+4             4.971e-06   5.259e-08    -5.304    -7.279    -1.975
   Fe(OH)2+               7.365e-08   5.543e-08    -7.133    -7.256    -0.123
   Fe3(OH)4+5             7.436e-10   6.090e-13    -9.129   -12.215    -3.087
   Fe(OH)3                2.288e-14   2.704e-14   -13.640   -13.568     0.072
   Fe(OH)4-               1.241e-22   9.338e-23   -21.906   -22.030    -0.123
H(0)             0.000e+00
   H2                     0.000e+00   0.000e+00   -42.078   -42.006     0.072
O(0)             6.985e-09
   O2                     3.492e-09   4.127e-09    -8.457    -8.384     0.072

------------------------------Saturation indices-------------------------------

	Phase               SI   log IAP   log K(298 K,   1 atm)

	Fe(OH)3(a)       -5.90*    -1.01    4.89  Fe(OH)3	 Delta_V  54.21 cm3/mol
	Goethite         -0.00*    -1.00   -1.00  FeOOH	 Delta_V  36.14 cm3/mol
	H2(g)           -38.86    -42.01   -3.15  H2
	H2O(g)           -1.52*    -0.01    1.51  H2O	 Delta_V  18.07 cm3/mol
	Hematite          2.02*    -1.99   -4.01  Fe2O3	 Delta_V  54.21 cm3/mol
	O2(g)            -5.49*    -8.38   -2.89  O2	 Delta_V  36.14 cm3/mol
	                      *  with Delta_V * (P - 1) / 2.3RT.

------------------
End of simulation.
------------------

-------------------------------------
Reading input data for simulation 13.
-------------------------------------

-----------
End of run.
-----------

