   Input file: surf_related_warnings
  Output file: surf_related_warnings.out
Database file: ../database/phreeqc.dat

------------------
Reading data base.
------------------

	SOLUTION_MASTER_SPECIES
	SOLUTION_SPECIES
	PHASES
	EXCHANGE_MASTER_SPECIES
	EXCHANGE_SPECIES
	SURFACE_MASTER_SPECIES
	SURFACE_SPECIES
	RATES
	END
------------------------------------
Reading input data for simulation 1.
------------------------------------

	DATABASE ../database/phreeqc.dat
	EQUILIBRIUM_PHASES 1 
	 Goethite 0 .1 
	SOLUTION 1 
	 Na 1
	 Cl 1 
	SAVE solution 1
	USER_PRINT
	 10 print sys("Cl"), sys("H"), sys("H") - get(1)
	 20 put(sys("H"), 1)
	END
-------------------------------------------
Beginning of initial solution calculations.
-------------------------------------------

Initial solution 1.	

----------------------------------User print-----------------------------------

  1.0000e-03   1.1101e+02   1.1101e+02 

-----------------------------Solution composition------------------------------

	Elements           Molality       Moles

	Cl                1.000e-03   1.000e-03
	Na                1.000e-03   1.000e-03

----------------------------Description of solution----------------------------

                                       pH  =   7.000    
                                       pe  =   4.000    
       Specific Conductance (uS/cm, 25 oC) = 123
                          Density (g/cm3)  =   0.99708
                        Activity of water  =   1.000
                           Ionic strength  =   1.000e-03
                       Mass of water (kg)  =   1.000e+00
                 Total alkalinity (eq/kg)  =   4.191e-10
                    Total carbon (mol/kg)  =   0.000e+00
                       Total CO2 (mol/kg)  =   0.000e+00
                      Temperature (deg C)  =  25.00
                  Electrical balance (eq)  =  -4.191e-10
 Percent error, 100*(Cat-|An|)/(Cat+|An|)  =  -0.00
                               Iterations  =   3
                                  Total H  = 1.110124e+02
                                  Total O  = 5.550622e+01

----------------------------Distribution of species----------------------------

                                               Log       Log       Log    mole V
   Species          Molality    Activity  Molality  Activity     Gamma   cm3/mol

   OH-             1.039e-07   1.002e-07    -6.983    -6.999    -0.016     -4.08
   H+              1.035e-07   1.000e-07    -6.985    -7.000    -0.015      0.00
   H2O             5.551e+01   1.000e+00     1.744    -0.000     0.000     18.07
Cl            1.000e-03
   Cl-             1.000e-03   9.648e-04    -3.000    -3.016    -0.016     18.06
H(0)          1.416e-25
   H2              7.078e-26   7.079e-26   -25.150   -25.150     0.000     28.61
Na            1.000e-03
   Na+             1.000e-03   9.651e-04    -3.000    -3.015    -0.015     -1.20
   NaOH            9.670e-21   9.672e-21   -20.015   -20.014     0.000     (0)  
O(0)          0.000e+00
   O2              0.000e+00   0.000e+00   -42.080   -42.080     0.000     30.40

------------------------------Saturation indices-------------------------------

	Phase               SI   log IAP   log K(298 K,   1 atm)

	H2(g)           -22.05    -25.15   -3.10  H2
	H2O(g)           -1.50     -0.00    1.50  H2O
	Halite           -7.61     -6.03    1.58  NaCl
	O2(g)           -39.19    -42.08   -2.89  O2


-----------------------------------------
Beginning of batch-reaction calculations.
-----------------------------------------

Reaction step 1.

Using solution 1.	
Using pure phase assemblage 1.	

----------------------------------User print-----------------------------------

  1.0000e-03   1.1111e+02   1.0000e-01 

-------------------------------Phase assemblage--------------------------------

                                                      Moles in assemblage
Phase               SI  log IAP  log K(T, P)   Initial       Final       Delta

Goethite          0.00    -1.00     -1.00    1.000e-01   1.000e-01  -6.311e-14

-----------------------------Solution composition------------------------------

	Elements           Molality       Moles

	Cl                1.000e-03   1.000e-03
	Fe                6.311e-14   6.311e-14
	Na                1.000e-03   1.000e-03

----------------------------Description of solution----------------------------

                                       pH  =   7.000      Charge balance
                                       pe  =   4.963      Adjusted to redox equilibrium
       Specific Conductance (uS/cm, 25 oC) = 123
                          Density (g/cm3)  =   0.99708
                        Activity of water  =   1.000
                           Ionic strength  =   1.000e-03
                       Mass of water (kg)  =   1.000e+00
                 Total alkalinity (eq/kg)  =   4.191e-10
                    Total carbon (mol/kg)  =   0.000e+00
                       Total CO2 (mol/kg)  =   0.000e+00
                      Temperature (deg C)  =  25.00
                  Electrical balance (eq)  =  -4.191e-10
 Percent error, 100*(Cat-|An|)/(Cat+|An|)  =  -0.00
                               Iterations  =  12
                                  Total H  = 1.110124e+02
                                  Total O  = 5.550622e+01

----------------------------Distribution of species----------------------------

                                               Log       Log       Log    mole V
   Species          Molality    Activity  Molality  Activity     Gamma   cm3/mol

   OH-             1.039e-07   1.002e-07    -6.983    -6.999    -0.016     -4.08
   H+              1.035e-07   1.000e-07    -6.985    -7.000    -0.015      0.00
   H2O             5.551e+01   1.000e+00     1.744    -0.000     0.000     18.07
Cl            1.000e-03
   Cl-             1.000e-03   9.648e-04    -3.000    -3.016    -0.016     18.06
   FeCl+           1.572e-17   1.517e-17   -16.804   -16.819    -0.015     (0)  
   FeCl+2          3.361e-24   2.914e-24   -23.474   -23.536    -0.062     (0)  
   FeCl2+          1.301e-26   1.256e-26   -25.886   -25.901    -0.015     (0)  
   FeCl3           1.211e-30   1.212e-30   -29.917   -29.917     0.000     (0)  
Fe(2)         1.315e-14
   Fe+2            1.310e-14   1.139e-14   -13.883   -13.943    -0.061    -22.16
   FeOH+           3.733e-17   3.602e-17   -16.428   -16.443    -0.015     (0)  
   FeCl+           1.572e-17   1.517e-17   -16.804   -16.819    -0.015     (0)  
Fe(3)         4.996e-14
   Fe(OH)3         2.754e-14   2.754e-14   -13.560   -13.560     0.000     (0)  
   Fe(OH)2+        2.216e-14   2.138e-14   -13.655   -13.670    -0.015     (0)  
   Fe(OH)4-        2.603e-16   2.512e-16   -15.585   -15.600    -0.015     (0)  
   FeOH+2          7.446e-18   6.457e-18   -17.128   -17.190    -0.062     (0)  
   Fe+3            1.358e-22   1.000e-22   -21.867   -22.000    -0.133     (0)  
   FeCl+2          3.361e-24   2.914e-24   -23.474   -23.536    -0.062     (0)  
   FeCl2+          1.301e-26   1.256e-26   -25.886   -25.901    -0.015     (0)  
   FeCl3           1.211e-30   1.212e-30   -29.917   -29.917     0.000     (0)  
   Fe2(OH)2+4      1.985e-33   1.122e-33   -32.702   -32.950    -0.248     (0)  
   Fe3(OH)4+5      0.000e+00   0.000e+00   -43.913   -44.300    -0.387     (0)  
H(0)          1.675e-27
   H2              8.375e-28   8.377e-28   -27.077   -27.077     0.000     28.61
Na            1.000e-03
   Na+             1.000e-03   9.651e-04    -3.000    -3.015    -0.015     -1.20
   NaOH            9.670e-21   9.672e-21   -20.015   -20.014     0.000     (0)  
O(0)          1.188e-38
   O2              5.939e-39   5.941e-39   -38.226   -38.226     0.000     30.40

------------------------------Saturation indices-------------------------------

	Phase               SI   log IAP   log K(298 K,   1 atm)

	Fe(OH)3(a)       -5.89     -1.00    4.89  Fe(OH)3
	Goethite          0.00     -1.00   -1.00  FeOOH
	H2(g)           -23.98    -27.08   -3.10  H2
	H2O(g)           -1.50     -0.00    1.50  H2O
	Halite           -7.61     -6.03    1.58  NaCl
	Hematite          2.01     -2.00   -4.01  Fe2O3
	O2(g)           -35.33    -38.23   -2.89  O2


------------------
End of simulation.
------------------

------------------------------------
Reading input data for simulation 2.
------------------------------------

	SURFACE 1 
	 Hfo_wOH Goethite 1e-2 2e3 
	 donnan # can be added, wonderful! 
	 equilibrate 1
	END
------------------------------------------------------
Beginning of initial surface-composition calculations.
------------------------------------------------------

Surface 1.	

Hfo           
	 -5.833e-15  Surface + diffuse layer charge, eq
	  1.234e-05  Surface charge, eq
	  5.953e-03  sigma, C/m**2
	  6.430e-02  psi, V
	 -2.503e+00  -F*psi/RT
	  8.186e-02  exp(-F*psi/RT)
	  2.000e+03  specific area, m**2/mol Goethite
	  2.000e+02  m**2 for   1.000e-01 moles of Goethite

	Water in diffuse layer: 2.000e-03 kg, 100.0% of total DDL-water.

	Total moles in diffuse layer (excluding water), Donnan calculation 

	Element       	     Moles
	Cl            	  1.2654e-05
	Fe            	  6.6039e-17
	H             	  1.3471e-09
	Na            	  3.1611e-07
	O             	  1.3144e-09

Hfo_w         
	  1.000e-03  moles	[0.01 mol/(mol Goethite)]
	                                   Mole                     Log
	Species               Moles    Fraction    Molality    Molality

	Hfo_wOH           7.674e-04       0.767   7.674e-04      -3.115
	Hfo_wOH2+         1.225e-04       0.122   1.225e-04      -3.912
	Hfo_wO-           1.101e-04       0.110   1.101e-04      -3.958
	Hfo_wOFe+         7.493e-15       0.000   7.493e-15     -14.125
	Hfo_wOFeOH        2.464e-15       0.000   2.464e-15     -14.608

------------------
End of simulation.
------------------

------------------------------------
Reading input data for simulation 3.
------------------------------------

	USE solution 1
	USE surface 1
	USE equilibrium_phases 1
	Reaction
		HCl 1
		5
	END 
-----------------------------------------
Beginning of batch-reaction calculations.
-----------------------------------------

Reaction step 1.

Using solution 1.	Solution after simulation 1.
Using surface 1.	
Using pure phase assemblage 1.	
Using reaction 1.	

Reaction 1.	

	  5.000e+00 moles of the following reaction have been added:

	                 Relative
	Reactant            moles

	HCl                  1.00000

	                 Relative
	Element             moles
	Cl                   1.00000
	H                    1.00000

----------------------------------User print-----------------------------------

  5.0010e+00   1.1611e+02   5.0000e+00 

-------------------------------Phase assemblage--------------------------------

                                                      Moles in assemblage
Phase               SI  log IAP  log K(T, P)   Initial       Final       Delta

Goethite         -4.44    -5.44     -1.00    1.000e-01           0  -1.000e-01

------------------------------Surface composition------------------------------

Hfo           
	 -4.086e-22  Surface + diffuse layer charge, eq
	  3.292e-26  Surface charge, eq
	undefined  sigma, C/m**2
	  1.656e-02  psi, V
	 -6.448e-01  -F*psi/RT
	  5.248e-01  exp(-F*psi/RT)
	  2.000e+03  specific area, m**2/mol Goethite
	  0.000e+00  m**2 for   0.000e+00 moles of Goethite

	Water in diffuse layer: 0.000e+00 kg,  0.0% of total DDL-water.

	Total moles in diffuse layer (excluding water), Donnan calculation 

	Element       	     Moles
	Cl            	  5.0010e-12
	Fe            	  1.0000e-13
	H             	  4.7000e-12
	Na            	  1.0003e-15
	O             	  9.8592e-21

Hfo_w         
	  0.000e+00  moles	[0.01 mol/(mol Goethite)]
	                                   Mole                     Log
	Species               Moles    Fraction    Molality    Molality

	Hfo_wOH2+         3.292e-26       0.000   3.280e-26     -25.484
	Hfo_wOH           9.691e-34       0.000   9.656e-34     -33.015
	Hfo_wO-           6.535e-43       0.000   6.512e-43     -42.186
	Hfo_wOFe+         4.660e-48       0.000   4.643e-48     -47.333
	Hfo_wOFeOH        6.029e-57       0.000   6.007e-57     -56.221

-----------------------------Solution composition------------------------------

	Elements           Molality       Moles

	Cl                4.983e+00   5.001e+00
	Fe                9.964e-02   1.000e-01
	Na                9.967e-04   1.000e-03

----------------------------Description of solution----------------------------

                                       pH  =  -0.521      Charge balance
                                       pe  =  19.835      Adjusted to redox equilibrium
       Specific Conductance (uS/cm, 25 oC) = 876953
                          Density (g/cm3)  =   1.08125
                        Activity of water  =   0.837
                           Ionic strength  =   4.789e+00
                       Mass of water (kg)  =   1.004e+00
                 Total alkalinity (eq/kg)  =  -4.882e+00
                    Total carbon (mol/kg)  =   0.000e+00
                       Total CO2 (mol/kg)  =   0.000e+00
                      Temperature (deg C)  =  25.00
                  Electrical balance (eq)  =  -4.086e-10
 Percent error, 100*(Cat-|An|)/(Cat+|An|)  =  -0.00
                               Iterations  =   1
                                  Total H  = 1.161124e+02
                                  Total O  = 5.570622e+01

----------------------------Distribution of species----------------------------

                                               Log       Log       Log    mole V
   Species          Molality    Activity  Molality  Activity     Gamma   cm3/mol

   H+              4.683e+00   3.320e+00     0.671     0.521    -0.149      0.00
   OH-             5.251e-15   2.528e-15   -14.280   -14.597    -0.317      5.64
   H2O             5.551e+01   8.375e-01     1.744    -0.077     0.000     18.07
Cl            4.983e+00
   Cl-             4.776e+00   2.713e+00     0.679     0.433    -0.246     19.85
   FeCl2+          7.803e-02   1.883e-01    -1.108    -0.725     0.383     (0)  
   FeCl3           1.696e-02   5.109e-02    -1.771    -1.292     0.479     (0)  
   FeCl+2          4.580e-04   1.554e-02    -3.339    -1.809     1.531     (0)  
   FeCl+           4.507e-11   1.088e-10   -10.346    -9.963     0.383     (0)  
Fe(2)         2.462e-10
   Fe+2            2.011e-10   2.905e-11    -9.697   -10.537    -0.840    -14.18
   FeCl+           4.507e-11   1.088e-10   -10.346    -9.963     0.383     (0)  
   FeOH+           9.602e-22   2.317e-21   -21.018   -20.635     0.383     (0)  
Fe(3)         9.964e-02
   FeCl2+          7.803e-02   1.883e-01    -1.108    -0.725     0.383     (0)  
   FeCl3           1.696e-02   5.109e-02    -1.771    -1.292     0.479     (0)  
   Fe+3            4.196e-03   1.897e-04    -2.377    -3.722    -1.345     (0)  
   FeCl+2          4.580e-04   1.554e-02    -3.339    -1.809     1.531     (0)  
   FeOH+2          9.105e-09   3.090e-07    -8.041    -6.510     1.531     (0)  
   Fe(OH)2+        1.069e-11   2.581e-11   -10.971   -10.588     0.383     (0)  
   Fe2(OH)2+4      1.938e-18   2.569e-12   -17.713   -11.590     6.122     (0)  
   Fe(OH)3         2.785e-19   8.387e-19   -18.555   -18.076     0.479     (0)  
   Fe(OH)4-        7.995e-29   1.930e-28   -28.097   -27.715     0.383     (0)  
   Fe3(OH)4+5      3.761e-30   1.385e-20   -29.425   -19.858     9.566     (0)  
H(0)          0.000e+00
   H2              0.000e+00   0.000e+00   -42.256   -41.778     0.479     28.61
Na            9.967e-04
   Na+             9.967e-04   1.174e-03    -3.001    -2.930     0.071      1.11
   NaOH            9.855e-29   2.969e-28   -28.006   -27.527     0.479     (0)  
O(0)          6.970e-10
   O2              3.485e-10   1.050e-09    -9.458    -8.979     0.479     30.40

------------------------------Saturation indices-------------------------------

	Phase               SI   log IAP   log K(298 K,   1 atm)

	Fe(OH)3(a)      -10.41     -5.52    4.89  Fe(OH)3
	Goethite         -4.44     -5.44   -1.00  FeOOH
	H2(g)           -38.68    -41.78   -3.10  H2
	H2O(g)           -1.58     -0.08    1.50  H2O
	Halite           -4.08     -2.50    1.58  NaCl
	Hematite         -6.79    -10.80   -4.01  Fe2O3
	O2(g)            -6.09     -8.98   -2.89  O2


------------------
End of simulation.
------------------

------------------------------------
Reading input data for simulation 4.
------------------------------------

	EQUILIBRIUM_PHASES 1 
	 Goethite 0 .1 
	SOLUTION 1 
	 Na 1
	 Cl 1 
	SAVE solution 1
	USER_PRINT
	 10 print sys("Cl"), sys("H"), sys("H") - get(1)
	 20 put(sys("H"), 1)
	END
-------------------------------------------
Beginning of initial solution calculations.
-------------------------------------------

Initial solution 1.	

----------------------------------User print-----------------------------------

  1.0000e-03   1.1101e+02  -5.1000e+00 

-----------------------------Solution composition------------------------------

	Elements           Molality       Moles

	Cl                1.000e-03   1.000e-03
	Na                1.000e-03   1.000e-03

----------------------------Description of solution----------------------------

                                       pH  =   7.000    
                                       pe  =   4.000    
       Specific Conductance (uS/cm, 25 oC) = 123
                          Density (g/cm3)  =   0.99708
                        Activity of water  =   1.000
                           Ionic strength  =   1.000e-03
                       Mass of water (kg)  =   1.000e+00
                 Total alkalinity (eq/kg)  =   4.191e-10
                    Total carbon (mol/kg)  =   0.000e+00
                       Total CO2 (mol/kg)  =   0.000e+00
                      Temperature (deg C)  =  25.00
                  Electrical balance (eq)  =  -4.191e-10
 Percent error, 100*(Cat-|An|)/(Cat+|An|)  =  -0.00
                               Iterations  =   3
                                  Total H  = 1.110124e+02
                                  Total O  = 5.550622e+01

----------------------------Distribution of species----------------------------

                                               Log       Log       Log    mole V
   Species          Molality    Activity  Molality  Activity     Gamma   cm3/mol

   OH-             1.039e-07   1.002e-07    -6.983    -6.999    -0.016     -4.08
   H+              1.035e-07   1.000e-07    -6.985    -7.000    -0.015      0.00
   H2O             5.551e+01   1.000e+00     1.744    -0.000     0.000     18.07
Cl            1.000e-03
   Cl-             1.000e-03   9.648e-04    -3.000    -3.016    -0.016     18.06
H(0)          1.416e-25
   H2              7.078e-26   7.079e-26   -25.150   -25.150     0.000     28.61
Na            1.000e-03
   Na+             1.000e-03   9.651e-04    -3.000    -3.015    -0.015     -1.20
   NaOH            9.670e-21   9.672e-21   -20.015   -20.014     0.000     (0)  
O(0)          0.000e+00
   O2              0.000e+00   0.000e+00   -42.080   -42.080     0.000     30.40

------------------------------Saturation indices-------------------------------

	Phase               SI   log IAP   log K(298 K,   1 atm)

	H2(g)           -22.05    -25.15   -3.10  H2
	H2O(g)           -1.50     -0.00    1.50  H2O
	Halite           -7.61     -6.03    1.58  NaCl
	O2(g)           -39.19    -42.08   -2.89  O2


-----------------------------------------
Beginning of batch-reaction calculations.
-----------------------------------------

Reaction step 1.

Using solution 1.	
Using pure phase assemblage 1.	

----------------------------------User print-----------------------------------

  1.0000e-03   1.1111e+02   1.0000e-01 

-------------------------------Phase assemblage--------------------------------

                                                      Moles in assemblage
Phase               SI  log IAP  log K(T, P)   Initial       Final       Delta

Goethite          0.00    -1.00     -1.00    1.000e-01   1.000e-01  -6.311e-14

-----------------------------Solution composition------------------------------

	Elements           Molality       Moles

	Cl                1.000e-03   1.000e-03
	Fe                6.311e-14   6.311e-14
	Na                1.000e-03   1.000e-03

----------------------------Description of solution----------------------------

                                       pH  =   7.000      Charge balance
                                       pe  =   4.963      Adjusted to redox equilibrium
       Specific Conductance (uS/cm, 25 oC) = 123
                          Density (g/cm3)  =   0.99708
                        Activity of water  =   1.000
                           Ionic strength  =   1.000e-03
                       Mass of water (kg)  =   1.000e+00
                 Total alkalinity (eq/kg)  =   4.191e-10
                    Total carbon (mol/kg)  =   0.000e+00
                       Total CO2 (mol/kg)  =   0.000e+00
                      Temperature (deg C)  =  25.00
                  Electrical balance (eq)  =  -4.191e-10
 Percent error, 100*(Cat-|An|)/(Cat+|An|)  =  -0.00
                               Iterations  =  12
                                  Total H  = 1.110124e+02
                                  Total O  = 5.550622e+01

----------------------------Distribution of species----------------------------

                                               Log       Log       Log    mole V
   Species          Molality    Activity  Molality  Activity     Gamma   cm3/mol

   OH-             1.039e-07   1.002e-07    -6.983    -6.999    -0.016     -4.08
   H+              1.035e-07   1.000e-07    -6.985    -7.000    -0.015      0.00
   H2O             5.551e+01   1.000e+00     1.744    -0.000     0.000     18.07
Cl            1.000e-03
   Cl-             1.000e-03   9.648e-04    -3.000    -3.016    -0.016     18.06
   FeCl+           1.572e-17   1.517e-17   -16.804   -16.819    -0.015     (0)  
   FeCl+2          3.361e-24   2.914e-24   -23.474   -23.536    -0.062     (0)  
   FeCl2+          1.301e-26   1.256e-26   -25.886   -25.901    -0.015     (0)  
   FeCl3           1.211e-30   1.212e-30   -29.917   -29.917     0.000     (0)  
Fe(2)         1.315e-14
   Fe+2            1.310e-14   1.139e-14   -13.883   -13.943    -0.061    -22.16
   FeOH+           3.733e-17   3.602e-17   -16.428   -16.443    -0.015     (0)  
   FeCl+           1.572e-17   1.517e-17   -16.804   -16.819    -0.015     (0)  
Fe(3)         4.996e-14
   Fe(OH)3         2.754e-14   2.754e-14   -13.560   -13.560     0.000     (0)  
   Fe(OH)2+        2.216e-14   2.138e-14   -13.655   -13.670    -0.015     (0)  
   Fe(OH)4-        2.603e-16   2.512e-16   -15.585   -15.600    -0.015     (0)  
   FeOH+2          7.446e-18   6.457e-18   -17.128   -17.190    -0.062     (0)  
   Fe+3            1.358e-22   1.000e-22   -21.867   -22.000    -0.133     (0)  
   FeCl+2          3.361e-24   2.914e-24   -23.474   -23.536    -0.062     (0)  
   FeCl2+          1.301e-26   1.256e-26   -25.886   -25.901    -0.015     (0)  
   FeCl3           1.211e-30   1.212e-30   -29.917   -29.917     0.000     (0)  
   Fe2(OH)2+4      1.985e-33   1.122e-33   -32.702   -32.950    -0.248     (0)  
   Fe3(OH)4+5      0.000e+00   0.000e+00   -43.913   -44.300    -0.387     (0)  
H(0)          1.675e-27
   H2              8.375e-28   8.377e-28   -27.077   -27.077     0.000     28.61
Na            1.000e-03
   Na+             1.000e-03   9.651e-04    -3.000    -3.015    -0.015     -1.20
   NaOH            9.670e-21   9.672e-21   -20.015   -20.014     0.000     (0)  
O(0)          1.188e-38
   O2              5.939e-39   5.941e-39   -38.226   -38.226     0.000     30.40

------------------------------Saturation indices-------------------------------

	Phase               SI   log IAP   log K(298 K,   1 atm)

	Fe(OH)3(a)       -5.89     -1.00    4.89  Fe(OH)3
	Goethite          0.00     -1.00   -1.00  FeOOH
	H2(g)           -23.98    -27.08   -3.10  H2
	H2O(g)           -1.50     -0.00    1.50  H2O
	Halite           -7.61     -6.03    1.58  NaCl
	Hematite          2.01     -2.00   -4.01  Fe2O3
	O2(g)           -35.33    -38.23   -2.89  O2


------------------
End of simulation.
------------------

------------------------------------
Reading input data for simulation 5.
------------------------------------

	SURFACE 1 
	 Hfo_w Goethite 1e-2 2e3 
	 donnan # can be added, wonderful! 
	 equilibrate 1
	END
WARNING: Suggest using master species formula in SURFACE 
	 for surface related to equilibrium_phase: Hfo_wOH.
------------------------------------------------------
Beginning of initial surface-composition calculations.
------------------------------------------------------

Surface 1.	

Hfo           
	 -5.833e-15  Surface + diffuse layer charge, eq
	  1.234e-05  Surface charge, eq
	  5.953e-03  sigma, C/m**2
	  6.430e-02  psi, V
	 -2.503e+00  -F*psi/RT
	  8.186e-02  exp(-F*psi/RT)
	  2.000e+03  specific area, m**2/mol Goethite
	  2.000e+02  m**2 for   1.000e-01 moles of Goethite

	Water in diffuse layer: 2.000e-03 kg, 100.0% of total DDL-water.

	Total moles in diffuse layer (excluding water), Donnan calculation 

	Element       	     Moles
	Cl            	  1.2654e-05
	Fe            	  6.6039e-17
	H             	  1.3471e-09
	Na            	  3.1611e-07
	O             	  1.3144e-09

Hfo_w         
	  1.000e-03  moles	[0.01 mol/(mol Goethite)]
	                                   Mole                     Log
	Species               Moles    Fraction    Molality    Molality

	Hfo_wOH           7.674e-04       0.767   7.674e-04      -3.115
	Hfo_wOH2+         1.225e-04       0.122   1.225e-04      -3.912
	Hfo_wO-           1.101e-04       0.110   1.101e-04      -3.958
	Hfo_wOFe+         7.493e-15       0.000   7.493e-15     -14.125
	Hfo_wOFeOH        2.464e-15       0.000   2.464e-15     -14.608

------------------
End of simulation.
------------------

------------------------------------
Reading input data for simulation 6.
------------------------------------

	USE solution 1
	USE surface 1
	USE equilibrium_phases 1
	Reaction
		HCl 1
		5
	END 
-----------------------------------------
Beginning of batch-reaction calculations.
-----------------------------------------

Reaction step 1.

Using solution 1.	Solution after simulation 4.
Using surface 1.	
Using pure phase assemblage 1.	
Using reaction 1.	

Reaction 1.	

	  5.000e+00 moles of the following reaction have been added:

	                 Relative
	Reactant            moles

	HCl                  1.00000

	                 Relative
	Element             moles
	Cl                   1.00000
	H                    1.00000

----------------------------------User print-----------------------------------

  5.0010e+00   1.1611e+02   5.0010e+00 

-------------------------------Phase assemblage--------------------------------

                                                      Moles in assemblage
Phase               SI  log IAP  log K(T, P)   Initial       Final       Delta

Goethite         -4.44    -5.44     -1.00    1.000e-01           0  -1.000e-01

------------------------------Surface composition------------------------------

Hfo           
	 -4.187e-22  Surface + diffuse layer charge, eq
	  3.482e-25  Surface charge, eq
	undefined  sigma, C/m**2
	 -2.569e-02  psi, V
	  9.998e-01  -F*psi/RT
	  2.718e+00  exp(-F*psi/RT)
	  2.000e+03  specific area, m**2/mol Goethite
	  0.000e+00  m**2 for   0.000e+00 moles of Goethite

	Water in diffuse layer: 0.000e+00 kg,  0.0% of total DDL-water.

	Total moles in diffuse layer (excluding water), Donnan calculation 

	Element       	     Moles
	Cl            	  5.0010e-12
	Fe            	  1.0000e-13
	H             	  4.7000e-12
	Na            	  1.0003e-15
	O             	  5.0001e-16

Hfo_w         
	  0.000e+00  moles	[0.01 mol/(mol Goethite)]
	                                   Mole                     Log
	Species               Moles    Fraction    Molality    Molality

	Hfo_wOH2+         3.482e-25       0.000   3.469e-25     -24.460
	Hfo_wOH           1.979e-33       0.000   1.972e-33     -32.705
	Hfo_wO-           2.577e-43       0.000   2.568e-43     -42.590
	Hfo_wOFe+         1.695e-48       0.000   1.689e-48     -47.772
	Hfo_wOFeOH        4.235e-58       0.000   4.220e-58     -57.375

-----------------------------Solution composition------------------------------

	Elements           Molality       Moles

	Cl                4.983e+00   5.001e+00
	Fe                9.964e-02   1.000e-01
	Na                9.967e-04   1.000e-03

----------------------------Description of solution----------------------------

                                       pH  =  -0.521      Charge balance
                                       pe  =  21.298      Adjusted to redox equilibrium
       Specific Conductance (uS/cm, 25 oC) = 876948
                          Density (g/cm3)  =   1.08125
                        Activity of water  =   0.837
                           Ionic strength  =   4.789e+00
                       Mass of water (kg)  =   1.004e+00
                 Total alkalinity (eq/kg)  =  -4.882e+00
                    Total carbon (mol/kg)  =   0.000e+00
                       Total CO2 (mol/kg)  =   0.000e+00
                      Temperature (deg C)  =  25.00
                  Electrical balance (eq)  =  -4.191e-10
 Percent error, 100*(Cat-|An|)/(Cat+|An|)  =  -0.00
                               Iterations  =   1
                                  Total H  = 1.161134e+02
                                  Total O  = 5.570722e+01

----------------------------Distribution of species----------------------------

                                               Log       Log       Log    mole V
   Species          Molality    Activity  Molality  Activity     Gamma   cm3/mol

   H+              4.683e+00   3.320e+00     0.671     0.521    -0.149      0.00
   OH-             5.251e-15   2.528e-15   -14.280   -14.597    -0.317      5.64
   H2O             5.551e+01   8.375e-01     1.744    -0.077     0.000     18.07
Cl            4.983e+00
   Cl-             4.776e+00   2.713e+00     0.679     0.433    -0.246     19.85
   FeCl2+          7.803e-02   1.883e-01    -1.108    -0.725     0.383     (0)  
   FeCl3           1.696e-02   5.109e-02    -1.771    -1.292     0.479     (0)  
   FeCl+2          4.580e-04   1.554e-02    -3.339    -1.809     1.531     (0)  
   FeCl+           1.550e-12   3.741e-12   -11.810   -11.427     0.383     (0)  
Fe(2)         8.466e-12
   Fe+2            6.916e-12   9.991e-13   -11.160   -12.000    -0.840    -14.18
   FeCl+           1.550e-12   3.741e-12   -11.810   -11.427     0.383     (0)  
   FeOH+           3.302e-23   7.970e-23   -22.481   -22.099     0.383     (0)  
Fe(3)         9.964e-02
   FeCl2+          7.803e-02   1.883e-01    -1.108    -0.725     0.383     (0)  
   FeCl3           1.696e-02   5.109e-02    -1.771    -1.292     0.479     (0)  
   Fe+3            4.196e-03   1.897e-04    -2.377    -3.722    -1.345     (0)  
   FeCl+2          4.580e-04   1.554e-02    -3.339    -1.809     1.531     (0)  
   FeOH+2          9.106e-09   3.090e-07    -8.041    -6.510     1.531     (0)  
   Fe(OH)2+        1.069e-11   2.581e-11   -10.971   -10.588     0.383     (0)  
   Fe2(OH)2+4      1.939e-18   2.569e-12   -17.713   -11.590     6.122     (0)  
   Fe(OH)3         2.785e-19   8.387e-19   -18.555   -18.076     0.479     (0)  
   Fe(OH)4-        7.996e-29   1.930e-28   -28.097   -27.715     0.383     (0)  
   Fe3(OH)4+5      3.762e-30   1.385e-20   -29.425   -19.858     9.566     (0)  
H(0)          0.000e+00
   H2              0.000e+00   0.000e+00   -45.184   -44.705     0.479     28.61
Na            9.967e-04
   Na+             9.967e-04   1.174e-03    -3.001    -2.930     0.071      1.11
   NaOH            9.855e-29   2.969e-28   -28.006   -27.527     0.479     (0)  
O(0)          4.982e-04
   O2              2.491e-04   7.503e-04    -3.604    -3.125     0.479     30.40

------------------------------Saturation indices-------------------------------

	Phase               SI   log IAP   log K(298 K,   1 atm)

	Fe(OH)3(a)      -10.41     -5.52    4.89  Fe(OH)3
	Goethite         -4.44     -5.44   -1.00  FeOOH
	H2(g)           -41.60    -44.70   -3.10  H2
	H2O(g)           -1.58     -0.08    1.50  H2O
	Halite           -4.08     -2.50    1.58  NaCl
	Hematite         -6.79    -10.80   -4.01  Fe2O3
	O2(g)            -0.23     -3.12   -2.89  O2


------------------
End of simulation.
------------------

------------------------------------
Reading input data for simulation 7.
------------------------------------

	EQUILIBRIUM_PHASES 1 
	 Hematite 0 .1 
	SOLUTION 1 
	 Na 1
	 Cl 1 
	SAVE solution 1
	USER_PRINT
	 10 print sys("Cl"), sys("H"), sys("H") - get(1)
	 20 put(sys("H"), 1)
	END
-------------------------------------------
Beginning of initial solution calculations.
-------------------------------------------

Initial solution 1.	

----------------------------------User print-----------------------------------

  1.0000e-03   1.1101e+02  -5.1010e+00 

-----------------------------Solution composition------------------------------

	Elements           Molality       Moles

	Cl                1.000e-03   1.000e-03
	Na                1.000e-03   1.000e-03

----------------------------Description of solution----------------------------

                                       pH  =   7.000    
                                       pe  =   4.000    
       Specific Conductance (uS/cm, 25 oC) = 123
                          Density (g/cm3)  =   0.99708
                        Activity of water  =   1.000
                           Ionic strength  =   1.000e-03
                       Mass of water (kg)  =   1.000e+00
                 Total alkalinity (eq/kg)  =   4.191e-10
                    Total carbon (mol/kg)  =   0.000e+00
                       Total CO2 (mol/kg)  =   0.000e+00
                      Temperature (deg C)  =  25.00
                  Electrical balance (eq)  =  -4.191e-10
 Percent error, 100*(Cat-|An|)/(Cat+|An|)  =  -0.00
                               Iterations  =   3
                                  Total H  = 1.110124e+02
                                  Total O  = 5.550622e+01

----------------------------Distribution of species----------------------------

                                               Log       Log       Log    mole V
   Species          Molality    Activity  Molality  Activity     Gamma   cm3/mol

   OH-             1.039e-07   1.002e-07    -6.983    -6.999    -0.016     -4.08
   H+              1.035e-07   1.000e-07    -6.985    -7.000    -0.015      0.00
   H2O             5.551e+01   1.000e+00     1.744    -0.000     0.000     18.07
Cl            1.000e-03
   Cl-             1.000e-03   9.648e-04    -3.000    -3.016    -0.016     18.06
H(0)          1.416e-25
   H2              7.078e-26   7.079e-26   -25.150   -25.150     0.000     28.61
Na            1.000e-03
   Na+             1.000e-03   9.651e-04    -3.000    -3.015    -0.015     -1.20
   NaOH            9.670e-21   9.672e-21   -20.015   -20.014     0.000     (0)  
O(0)          0.000e+00
   O2              0.000e+00   0.000e+00   -42.080   -42.080     0.000     30.40

------------------------------Saturation indices-------------------------------

	Phase               SI   log IAP   log K(298 K,   1 atm)

	H2(g)           -22.05    -25.15   -3.10  H2
	H2O(g)           -1.50     -0.00    1.50  H2O
	Halite           -7.61     -6.03    1.58  NaCl
	O2(g)           -39.19    -42.08   -2.89  O2


-----------------------------------------
Beginning of batch-reaction calculations.
-----------------------------------------

Reaction step 1.

WARNING: Maximum iterations exceeded, 100

WARNING: Numerical method failed with this set of convergence parameters.

WARNING: Trying smaller step size, pe step size 10, 5 ... 

Using solution 1.	
Using pure phase assemblage 1.	

----------------------------------User print-----------------------------------

  1.0000e-03   1.1101e+02  -2.8422e-14 

-------------------------------Phase assemblage--------------------------------

                                                      Moles in assemblage
Phase               SI  log IAP  log K(T, P)   Initial       Final       Delta

Hematite          0.00    -4.01     -4.01    1.000e-01   1.000e-01   5.000e-11

-----------------------------Solution composition------------------------------

	Elements           Molality       Moles

	Cl                1.000e-03   1.000e-03
	Fe                5.885e-15   5.885e-15
	Na                1.000e-03   1.000e-03

----------------------------Description of solution----------------------------

                                       pH  =   7.000      Charge balance
                                       pe  =   5.108      Adjusted to redox equilibrium
       Specific Conductance (uS/cm, 25 oC) = 123
                          Density (g/cm3)  =   0.99708
                        Activity of water  =   1.000
                           Ionic strength  =   1.000e-03
                       Mass of water (kg)  =   1.000e+00
                 Total alkalinity (eq/kg)  =   4.191e-10
                    Total carbon (mol/kg)  =   0.000e+00
                       Total CO2 (mol/kg)  =   0.000e+00
                      Temperature (deg C)  =  25.00
                  Electrical balance (eq)  =  -4.191e-10
 Percent error, 100*(Cat-|An|)/(Cat+|An|)  =  -0.00
                               Iterations  =  14
                                  Total H  = 1.110124e+02
                                  Total O  = 5.550622e+01

----------------------------Distribution of species----------------------------

                                               Log       Log       Log    mole V
   Species          Molality    Activity  Molality  Activity     Gamma   cm3/mol

   OH-             1.039e-07   1.002e-07    -6.983    -6.999    -0.016     -4.08
   H+              1.035e-07   1.000e-07    -6.985    -7.000    -0.015      0.00
   H2O             5.551e+01   1.000e+00     1.744    -0.000     0.000     18.07
Cl            1.000e-03
   Cl-             1.000e-03   9.648e-04    -3.000    -3.016    -0.016     18.06
   FeCl+           1.118e-18   1.078e-18   -17.952   -17.967    -0.015     (0)  
   FeCl+2          3.330e-25   2.887e-25   -24.478   -24.540    -0.062     (0)  
   FeCl2+          1.289e-27   1.244e-27   -26.890   -26.905    -0.015     (0)  
   FeCl3           1.200e-31   1.201e-31   -30.921   -30.921     0.000     (0)  
Fe(2)         9.351e-16
   Fe+2            9.313e-16   8.098e-16   -15.031   -15.092    -0.061    -22.16
   FeOH+           2.654e-18   2.561e-18   -17.576   -17.592    -0.015     (0)  
   FeCl+           1.118e-18   1.078e-18   -17.952   -17.967    -0.015     (0)  
Fe(3)         4.950e-15
   Fe(OH)3         2.728e-15   2.729e-15   -14.564   -14.564     0.000     (0)  
   Fe(OH)2+        2.195e-15   2.118e-15   -14.659   -14.674    -0.015     (0)  
   Fe(OH)4-        2.579e-17   2.489e-17   -16.589   -16.604    -0.015     (0)  
   FeOH+2          7.378e-19   6.397e-19   -18.132   -18.194    -0.062     (0)  
   Fe+3            1.345e-23   9.909e-24   -22.871   -23.004    -0.133     (0)  
   FeCl+2          3.330e-25   2.887e-25   -24.478   -24.540    -0.062     (0)  
   FeCl2+          1.289e-27   1.244e-27   -26.890   -26.905    -0.015     (0)  
   FeCl3           1.200e-31   1.201e-31   -30.921   -30.921     0.000     (0)  
   Fe2(OH)2+4      1.949e-35   1.102e-35   -34.710   -34.958    -0.248     (0)  
   Fe3(OH)4+5      0.000e+00   0.000e+00   -46.925   -47.312    -0.387     (0)  
H(0)          8.622e-28
   H2              4.311e-28   4.312e-28   -27.365   -27.365     0.000     28.61
Na            1.000e-03
   Na+             1.000e-03   9.651e-04    -3.000    -3.015    -0.015     -1.20
   NaOH            9.670e-21   9.672e-21   -20.015   -20.014     0.000     (0)  
O(0)          4.483e-38
   O2              2.241e-38   2.242e-38   -37.649   -37.649     0.000     30.40

------------------------------Saturation indices-------------------------------

	Phase               SI   log IAP   log K(298 K,   1 atm)

	Fe(OH)3(a)       -6.90     -2.00    4.89  Fe(OH)3
	Goethite         -1.00     -2.00   -1.00  FeOOH
	H2(g)           -24.26    -27.37   -3.10  H2
	H2O(g)           -1.50     -0.00    1.50  H2O
	Halite           -7.61     -6.03    1.58  NaCl
	Hematite          0.00     -4.01   -4.01  Fe2O3
	O2(g)           -34.76    -37.65   -2.89  O2


------------------
End of simulation.
------------------

------------------------------------
Reading input data for simulation 8.
------------------------------------

	SURFACE 1 
	 Hfo_wOH Hematite 1e-2 2e3 
	 donnan # can be added, wonderful! 
	 equilibrate 1
	END
WARNING: Element H in sum of surface sites,
	 including Hfo_wOH * 0.01 mol sites/mol phase,
	 exceeds stoichiometry in the related phase Hematite, Fe2O3.
WARNING: The mismatch in stoichiometry may cause mass-balance errors or unwanted redox reactions.
------------------------------------------------------
Beginning of initial surface-composition calculations.
------------------------------------------------------

Surface 1.	

Hfo           
	 -5.833e-15  Surface + diffuse layer charge, eq
	  1.234e-05  Surface charge, eq
	  5.953e-03  sigma, C/m**2
	  6.430e-02  psi, V
	 -2.503e+00  -F*psi/RT
	  8.186e-02  exp(-F*psi/RT)
	  2.000e+03  specific area, m**2/mol Hematite
	  2.000e+02  m**2 for   1.000e-01 moles of Hematite

	Water in diffuse layer: 2.000e-03 kg, 100.0% of total DDL-water.

	Total moles in diffuse layer (excluding water), Donnan calculation 

	Element       	     Moles
	Cl            	  1.2654e-05
	Fe            	  6.5244e-18
	H             	  1.3471e-09
	Na            	  3.1611e-07
	O             	  1.3144e-09

Hfo_w         
	  1.000e-03  moles	[0.01 mol/(mol Hematite)]
	                                   Mole                     Log
	Species               Moles    Fraction    Molality    Molality

	Hfo_wOH           7.674e-04       0.767   7.674e-04      -3.115
	Hfo_wOH2+         1.225e-04       0.122   1.225e-04      -3.912
	Hfo_wO-           1.101e-04       0.110   1.101e-04      -3.958
	Hfo_wOFe+         5.326e-16       0.000   5.326e-16     -15.274
	Hfo_wOFeOH        1.751e-16       0.000   1.751e-16     -15.757

------------------
End of simulation.
------------------

------------------------------------
Reading input data for simulation 9.
------------------------------------

	USE solution 1
	USE surface 1
	USE equilibrium_phases 1
	Reaction
		HCl 1
		5
	END 
-----------------------------------------
Beginning of batch-reaction calculations.
-----------------------------------------

Reaction step 1.

Using solution 1.	Solution after simulation 7.
Using surface 1.	
Using pure phase assemblage 1.	
Using reaction 1.	

Reaction 1.	

	  5.000e+00 moles of the following reaction have been added:

	                 Relative
	Reactant            moles

	HCl                  1.00000

	                 Relative
	Element             moles
	Cl                   1.00000
	H                    1.00000

----------------------------------User print-----------------------------------

  5.0010e+00   1.1601e+02   5.0000e+00 

-------------------------------Phase assemblage--------------------------------

                                                      Moles in assemblage
Phase               SI  log IAP  log K(T, P)   Initial       Final       Delta

Hematite         -5.97    -9.98     -4.01    1.000e-01           0  -1.000e-01

------------------------------Surface composition------------------------------

Hfo           
	 -3.995e-22  Surface + diffuse layer charge, eq
	  3.605e-26  Surface charge, eq
	undefined  sigma, C/m**2
	  2.843e-02  psi, V
	 -1.107e+00  -F*psi/RT
	  3.307e-01  exp(-F*psi/RT)
	  2.000e+03  specific area, m**2/mol Hematite
	  0.000e+00  m**2 for   0.000e+00 moles of Hematite

	Water in diffuse layer: 0.000e+00 kg,  0.0% of total DDL-water.

	Total moles in diffuse layer (excluding water), Donnan calculation 

	Element       	     Moles
	Cl            	  5.0010e-12
	Fe            	  2.0000e-13
	H             	  4.4000e-12
	Na            	  1.0003e-15
	O             	  2.8331e-20

Hfo_w         
	  0.000e+00  moles	[0.01 mol/(mol Hematite)]
	                                   Mole                     Log
	Species               Moles    Fraction    Molality    Molality

	Hfo_wOH2+         3.605e-26       0.000   3.586e-26     -25.445
	Hfo_wOH           1.800e-33       0.000   1.791e-33     -32.747
	Hfo_wO-           2.060e-42       0.000   2.049e-42     -41.689
	Hfo_wOFe+         1.054e-47       0.000   1.048e-47     -46.980
	Hfo_wOFeOH        2.333e-56       0.000   2.320e-56     -55.634

-----------------------------Solution composition------------------------------

	Elements           Molality       Moles

	Cl                4.974e+00   5.001e+00
	Fe                1.989e-01   2.000e-01
	Na                9.949e-04   1.000e-03

----------------------------Description of solution----------------------------

                                       pH  =  -0.492      Charge balance
                                       pe  =  19.896      Adjusted to redox equilibrium
       Specific Conductance (uS/cm, 25 oC) = 836855
                          Density (g/cm3)  =   1.09008
                        Activity of water  =   0.845
                           Ionic strength  =   4.590e+00
                       Mass of water (kg)  =   1.005e+00
                 Total alkalinity (eq/kg)  =  -4.774e+00
                    Total carbon (mol/kg)  =   0.000e+00
                       Total CO2 (mol/kg)  =   0.000e+00
                      Temperature (deg C)  =  25.00
                  Electrical balance (eq)  =  -3.995e-10
 Percent error, 100*(Cat-|An|)/(Cat+|An|)  =  -0.00
                               Iterations  =   1
                                  Total H  = 1.160124e+02
                                  Total O  = 5.580622e+01

----------------------------Distribution of species----------------------------

                                               Log       Log       Log    mole V
   Species          Molality    Activity  Molality  Activity     Gamma   cm3/mol

   H+              4.376e+00   3.105e+00     0.641     0.492    -0.149      0.00
   OH-             5.637e-15   2.726e-15   -14.249   -14.564    -0.316      5.28
   H2O             5.551e+01   8.446e-01     1.744    -0.073     0.000     18.07
Cl            4.974e+00
   Cl-             4.563e+00   2.586e+00     0.659     0.413    -0.247     19.82
   FeCl2+          1.572e-01   3.555e-01    -0.804    -0.449     0.355     (0)  
   FeCl3           3.195e-02   9.193e-02    -1.496    -1.037     0.459     (0)  
   FeCl+2          1.175e-03   3.078e-02    -2.930    -1.512     1.418     (0)  
   FeCl+           8.281e-11   1.873e-10   -10.082    -9.727     0.355     (0)  
Fe(2)         4.434e-10
   Fe+2            3.606e-10   5.249e-11    -9.443   -10.280    -0.837    -14.35
   FeCl+           8.281e-11   1.873e-10   -10.082    -9.727     0.355     (0)  
   FeOH+           1.996e-21   4.515e-21   -20.700   -20.345     0.355     (0)  
Fe(3)         1.989e-01
   FeCl2+          1.572e-01   3.555e-01    -0.804    -0.449     0.355     (0)  
   FeCl3           3.195e-02   9.193e-02    -1.496    -1.037     0.459     (0)  
   Fe+3            8.644e-03   3.942e-04    -2.063    -3.404    -1.341     (0)  
   FeCl+2          1.175e-03   3.078e-02    -2.930    -1.512     1.418     (0)  
   FeOH+2          2.643e-08   6.923e-07    -7.578    -6.160     1.418     (0)  
   Fe(OH)2+        2.756e-11   6.235e-11   -10.560   -10.205     0.355     (0)  
   Fe2(OH)2+4      2.739e-17   1.290e-11   -16.562   -10.889     5.673     (0)  
   Fe(OH)3         7.593e-19   2.185e-18   -18.120   -17.661     0.459     (0)  
   Fe(OH)4-        2.395e-28   5.420e-28   -27.621   -27.266     0.355     (0)  
   Fe3(OH)4+5      2.298e-28   1.681e-19   -27.639   -18.774     8.864     (0)  
H(0)          0.000e+00
   H2              0.000e+00   0.000e+00   -42.416   -41.957     0.459     28.61
Na            9.949e-04
   Na+             9.949e-04   1.137e-03    -3.002    -2.944     0.058      1.04
   NaOH            1.077e-28   3.098e-28   -27.968   -27.509     0.459     (0)  
O(0)          1.697e-09
   O2              8.485e-10   2.441e-09    -9.071    -8.612     0.459     30.40

------------------------------Saturation indices-------------------------------

	Phase               SI   log IAP   log K(298 K,   1 atm)

	Fe(OH)3(a)       -9.99     -5.10    4.89  Fe(OH)3
	Goethite         -4.03     -5.03   -1.00  FeOOH
	H2(g)           -38.86    -41.96   -3.10  H2
	H2O(g)           -1.58     -0.07    1.50  H2O
	Halite           -4.11     -2.53    1.58  NaCl
	Hematite         -5.97     -9.98   -4.01  Fe2O3
	O2(g)            -5.72     -8.61   -2.89  O2


------------------
End of simulation.
------------------

-------------------------------------
Reading input data for simulation 10.
-------------------------------------

	SURFACE_MASTER_SPECIES
	Hfo_s Hfo_sO-
	SURFACE_SPECIES
	Hfo_sO- = Hfo_sO-
	log_k 0
	Hfo_sO- + H+ = Hfo_sOH
	log_k -100
	END
------------------
End of simulation.
------------------

-------------------------------------
Reading input data for simulation 11.
-------------------------------------

	EQUILIBRIUM_PHASES 1 
	 Goethite 0 .1 
	SOLUTION 1 
	 Na 1
	 Cl 1 
	SAVE solution 1
	USER_PRINT
	 10 print sys("Cl"), sys("H"), sys("H") - get(1)
	 20 put(sys("H"), 1)
	END
-------------------------------------------
Beginning of initial solution calculations.
-------------------------------------------

Initial solution 1.	

----------------------------------User print-----------------------------------

  1.0000e-03   1.1101e+02  -5.0000e+00 

-----------------------------Solution composition------------------------------

	Elements           Molality       Moles

	Cl                1.000e-03   1.000e-03
	Na                1.000e-03   1.000e-03

----------------------------Description of solution----------------------------

                                       pH  =   7.000    
                                       pe  =   4.000    
       Specific Conductance (uS/cm, 25 oC) = 123
                          Density (g/cm3)  =   0.99708
                        Activity of water  =   1.000
                           Ionic strength  =   1.000e-03
                       Mass of water (kg)  =   1.000e+00
                 Total alkalinity (eq/kg)  =   4.191e-10
                    Total carbon (mol/kg)  =   0.000e+00
                       Total CO2 (mol/kg)  =   0.000e+00
                      Temperature (deg C)  =  25.00
                  Electrical balance (eq)  =  -4.191e-10
 Percent error, 100*(Cat-|An|)/(Cat+|An|)  =  -0.00
                               Iterations  =   3
                                  Total H  = 1.110124e+02
                                  Total O  = 5.550622e+01

----------------------------Distribution of species----------------------------

                                               Log       Log       Log    mole V
   Species          Molality    Activity  Molality  Activity     Gamma   cm3/mol

   OH-             1.039e-07   1.002e-07    -6.983    -6.999    -0.016     -4.08
   H+              1.035e-07   1.000e-07    -6.985    -7.000    -0.015      0.00
   H2O             5.551e+01   1.000e+00     1.744    -0.000     0.000     18.07
Cl            1.000e-03
   Cl-             1.000e-03   9.648e-04    -3.000    -3.016    -0.016     18.06
H(0)          1.416e-25
   H2              7.078e-26   7.079e-26   -25.150   -25.150     0.000     28.61
Na            1.000e-03
   Na+             1.000e-03   9.651e-04    -3.000    -3.015    -0.015     -1.20
   NaOH            9.670e-21   9.672e-21   -20.015   -20.014     0.000     (0)  
O(0)          0.000e+00
   O2              0.000e+00   0.000e+00   -42.080   -42.080     0.000     30.40

------------------------------Saturation indices-------------------------------

	Phase               SI   log IAP   log K(298 K,   1 atm)

	H2(g)           -22.05    -25.15   -3.10  H2
	H2O(g)           -1.50     -0.00    1.50  H2O
	Halite           -7.61     -6.03    1.58  NaCl
	O2(g)           -39.19    -42.08   -2.89  O2


-----------------------------------------
Beginning of batch-reaction calculations.
-----------------------------------------

Reaction step 1.

Using solution 1.	
Using pure phase assemblage 1.	

----------------------------------User print-----------------------------------

  1.0000e-03   1.1111e+02   1.0000e-01 

-------------------------------Phase assemblage--------------------------------

                                                      Moles in assemblage
Phase               SI  log IAP  log K(T, P)   Initial       Final       Delta

Goethite          0.00    -1.00     -1.00    1.000e-01   1.000e-01  -6.311e-14

-----------------------------Solution composition------------------------------

	Elements           Molality       Moles

	Cl                1.000e-03   1.000e-03
	Fe                6.311e-14   6.311e-14
	Na                1.000e-03   1.000e-03

----------------------------Description of solution----------------------------

                                       pH  =   7.000      Charge balance
                                       pe  =   4.963      Adjusted to redox equilibrium
       Specific Conductance (uS/cm, 25 oC) = 123
                          Density (g/cm3)  =   0.99708
                        Activity of water  =   1.000
                           Ionic strength  =   1.000e-03
                       Mass of water (kg)  =   1.000e+00
                 Total alkalinity (eq/kg)  =   4.191e-10
                    Total carbon (mol/kg)  =   0.000e+00
                       Total CO2 (mol/kg)  =   0.000e+00
                      Temperature (deg C)  =  25.00
                  Electrical balance (eq)  =  -4.191e-10
 Percent error, 100*(Cat-|An|)/(Cat+|An|)  =  -0.00
                               Iterations  =  12
                                  Total H  = 1.110124e+02
                                  Total O  = 5.550622e+01

----------------------------Distribution of species----------------------------

                                               Log       Log       Log    mole V
   Species          Molality    Activity  Molality  Activity     Gamma   cm3/mol

   OH-             1.039e-07   1.002e-07    -6.983    -6.999    -0.016     -4.08
   H+              1.035e-07   1.000e-07    -6.985    -7.000    -0.015      0.00
   H2O             5.551e+01   1.000e+00     1.744    -0.000     0.000     18.07
Cl            1.000e-03
   Cl-             1.000e-03   9.648e-04    -3.000    -3.016    -0.016     18.06
   FeCl+           1.572e-17   1.517e-17   -16.804   -16.819    -0.015     (0)  
   FeCl+2          3.361e-24   2.914e-24   -23.474   -23.536    -0.062     (0)  
   FeCl2+          1.301e-26   1.256e-26   -25.886   -25.901    -0.015     (0)  
   FeCl3           1.211e-30   1.212e-30   -29.917   -29.917     0.000     (0)  
Fe(2)         1.315e-14
   Fe+2            1.310e-14   1.139e-14   -13.883   -13.943    -0.061    -22.16
   FeOH+           3.733e-17   3.602e-17   -16.428   -16.443    -0.015     (0)  
   FeCl+           1.572e-17   1.517e-17   -16.804   -16.819    -0.015     (0)  
Fe(3)         4.996e-14
   Fe(OH)3         2.754e-14   2.754e-14   -13.560   -13.560     0.000     (0)  
   Fe(OH)2+        2.216e-14   2.138e-14   -13.655   -13.670    -0.015     (0)  
   Fe(OH)4-        2.603e-16   2.512e-16   -15.585   -15.600    -0.015     (0)  
   FeOH+2          7.446e-18   6.457e-18   -17.128   -17.190    -0.062     (0)  
   Fe+3            1.358e-22   1.000e-22   -21.867   -22.000    -0.133     (0)  
   FeCl+2          3.361e-24   2.914e-24   -23.474   -23.536    -0.062     (0)  
   FeCl2+          1.301e-26   1.256e-26   -25.886   -25.901    -0.015     (0)  
   FeCl3           1.211e-30   1.212e-30   -29.917   -29.917     0.000     (0)  
   Fe2(OH)2+4      1.985e-33   1.122e-33   -32.702   -32.950    -0.248     (0)  
   Fe3(OH)4+5      0.000e+00   0.000e+00   -43.913   -44.300    -0.387     (0)  
H(0)          1.675e-27
   H2              8.375e-28   8.377e-28   -27.077   -27.077     0.000     28.61
Na            1.000e-03
   Na+             1.000e-03   9.651e-04    -3.000    -3.015    -0.015     -1.20
   NaOH            9.670e-21   9.672e-21   -20.015   -20.014     0.000     (0)  
O(0)          1.188e-38
   O2              5.939e-39   5.941e-39   -38.226   -38.226     0.000     30.40

------------------------------Saturation indices-------------------------------

	Phase               SI   log IAP   log K(298 K,   1 atm)

	Fe(OH)3(a)       -5.89     -1.00    4.89  Fe(OH)3
	Goethite          0.00     -1.00   -1.00  FeOOH
	H2(g)           -23.98    -27.08   -3.10  H2
	H2O(g)           -1.50     -0.00    1.50  H2O
	Halite           -7.61     -6.03    1.58  NaCl
	Hematite          2.01     -2.00   -4.01  Fe2O3
	O2(g)           -35.33    -38.23   -2.89  O2


------------------
End of simulation.
------------------

-------------------------------------
Reading input data for simulation 12.
-------------------------------------

	SURFACE 1 
	 Hfo_sO- Goethite 1e-2 2e3 
	 donnan # can be added, wonderful! 
	 equilibrate 1
	END
WARNING: Suggest master species of surface, Hfo_sO-, be uncharged for surface related to equilibrium_phase.
------------------------------------------------------
Beginning of initial surface-composition calculations.
------------------------------------------------------

Surface 1.	

Hfo           
	  8.753e-10  Surface + diffuse layer charge, eq
	 -1.000e-03  Surface charge, eq
	 -4.825e-01  sigma, C/m**2
	 -2.857e-01  psi, V
	  1.112e+01  -F*psi/RT
	  6.764e+04  exp(-F*psi/RT)
	  2.000e+03  specific area, m**2/mol Goethite
	  2.000e+02  m**2 for   1.000e-01 moles of Goethite

	Water in diffuse layer: 2.000e-03 kg, 100.0% of total DDL-water.

	Total moles in diffuse layer (excluding water), Donnan calculation 

	Element       	     Moles
	Cl            	  4.0004e-09
	Fe            	  6.5751e-12
	H             	  1.0344e-07
	Na            	  9.9990e-04
	O             	  4.6377e-13

Hfo_s         
	  1.000e-03  moles	[0.01 mol/(mol Goethite)]
	                                   Mole                     Log
	Species               Moles    Fraction    Molality    Molality

	Hfo_sO-           1.000e-03       1.000   1.000e-03      -3.000
	Hfo_sOH2+        8.922e-101       0.000  8.922e-101    -100.050
	Hfo_sOH          6.764e-106       0.000  6.764e-106    -105.170
	Hfo_sOFe+        5.848e-109       0.000  5.848e-109    -108.233

------------------
End of simulation.
------------------

-------------------------------------
Reading input data for simulation 13.
-------------------------------------

	USE solution 1
	USE surface 1
	USE equilibrium_phases 1
	Reaction
		HCl 1
		5
	END 
-----------------------------------------
Beginning of batch-reaction calculations.
-----------------------------------------

Reaction step 1.

Using solution 1.	Solution after simulation 11.
Using surface 1.	
Using pure phase assemblage 1.	
Using reaction 1.	

Reaction 1.	

	  5.000e+00 moles of the following reaction have been added:

	                 Relative
	Reactant            moles

	HCl                  1.00000

	                 Relative
	Element             moles
	Cl                   1.00000
	H                    1.00000

----------------------------------User print-----------------------------------

  5.0010e+00   1.1611e+02   5.0000e+00 

-------------------------------Phase assemblage--------------------------------

                                                      Moles in assemblage
Phase               SI  log IAP  log K(T, P)   Initial       Final       Delta

Goethite         -4.44    -5.44     -1.00    1.000e-01           0  -1.000e-01

------------------------------Surface composition------------------------------

Hfo           
	  1.000e-15  Surface + diffuse layer charge, eq
	 -5.680e-26  Surface charge, eq
	undefined  sigma, C/m**2
	 -3.125e-01  psi, V
	  1.216e+01  -F*psi/RT
	  1.918e+05  exp(-F*psi/RT)
	  2.000e+03  specific area, m**2/mol Goethite
	  0.000e+00  m**2 for   0.000e+00 moles of Goethite

	Water in diffuse layer: 0.000e+00 kg,  0.0% of total DDL-water.

	Total moles in diffuse layer (excluding water), Donnan calculation 

	Element       	     Moles
	Cl            	  5.0010e-12
	Fe            	  1.0000e-13
	H             	  4.7000e-12
	Na            	  1.9999e-15
	O             	  9.3271e-21

Hfo_s         
	  0.000e+00  moles	[0.01 mol/(mol Goethite)]
	                                   Mole                     Log
	Species               Moles    Fraction    Molality    Molality

	Hfo_sO-           5.680e-26       0.000   5.660e-26     -25.247
	Hfo_sOH2+        4.492e-107       0.000  4.476e-107    -106.349
	Hfo_sOH          3.618e-120       0.000  3.605e-120    -119.443
	Hfo_sOFe+        9.675e-127       0.000  9.641e-127    -126.016

-----------------------------Solution composition------------------------------

	Elements           Molality       Moles

	Cl                4.983e+00   5.001e+00
	Fe                9.964e-02   1.000e-01
	Na                1.993e-03   2.000e-03

----------------------------Description of solution----------------------------

                                       pH  =  -0.521      Charge balance
                                       pe  =  19.683      Adjusted to redox equilibrium
       Specific Conductance (uS/cm, 25 oC) = 876962
                          Density (g/cm3)  =   1.08127
                        Activity of water  =   0.837
                           Ionic strength  =   4.789e+00
                       Mass of water (kg)  =   1.004e+00
                 Total alkalinity (eq/kg)  =  -4.882e+00
                    Total carbon (mol/kg)  =   0.000e+00
                       Total CO2 (mol/kg)  =   0.000e+00
                      Temperature (deg C)  =  25.00
                  Electrical balance (eq)  =   1.000e-03
 Percent error, 100*(Cat-|An|)/(Cat+|An|)  =   0.01
                               Iterations  =   1
                                  Total H  = 1.161124e+02
                                  Total O  = 5.570622e+01

----------------------------Distribution of species----------------------------

                                               Log       Log       Log    mole V
   Species          Molality    Activity  Molality  Activity     Gamma   cm3/mol

   H+              4.683e+00   3.320e+00     0.671     0.521    -0.149      0.00
   OH-             5.251e-15   2.528e-15   -14.280   -14.597    -0.317      5.65
   H2O             5.551e+01   8.375e-01     1.744    -0.077     0.000     18.07
Cl            4.983e+00
   Cl-             4.776e+00   2.713e+00     0.679     0.433    -0.246     19.85
   FeCl2+          7.803e-02   1.883e-01    -1.108    -0.725     0.383     (0)  
   FeCl3           1.696e-02   5.110e-02    -1.771    -1.292     0.479     (0)  
   FeCl+2          4.578e-04   1.554e-02    -3.339    -1.808     1.531     (0)  
   FeCl+           6.399e-11   1.545e-10   -10.194    -9.811     0.383     (0)  
Fe(2)         3.495e-10
   Fe+2            2.856e-10   4.125e-11    -9.544   -10.385    -0.840    -14.17
   FeCl+           6.399e-11   1.545e-10   -10.194    -9.811     0.383     (0)  
   FeOH+           1.363e-21   3.291e-21   -20.865   -20.483     0.383     (0)  
Fe(3)         9.964e-02
   FeCl2+          7.803e-02   1.883e-01    -1.108    -0.725     0.383     (0)  
   FeCl3           1.696e-02   5.110e-02    -1.771    -1.292     0.479     (0)  
   Fe+3            4.196e-03   1.897e-04    -2.377    -3.722    -1.345     (0)  
   FeCl+2          4.578e-04   1.554e-02    -3.339    -1.808     1.531     (0)  
   FeOH+2          9.101e-09   3.090e-07    -8.041    -6.510     1.531     (0)  
   Fe(OH)2+        1.069e-11   2.581e-11   -10.971   -10.588     0.383     (0)  
   Fe2(OH)2+4      1.934e-18   2.570e-12   -17.714   -11.590     6.124     (0)  
   Fe(OH)3         2.784e-19   8.388e-19   -18.555   -18.076     0.479     (0)  
   Fe(OH)4-        7.995e-29   1.930e-28   -28.097   -27.714     0.383     (0)  
   Fe3(OH)4+5      3.747e-30   1.386e-20   -29.426   -19.858     9.568     (0)  
H(0)          0.000e+00
   H2              0.000e+00   0.000e+00   -41.952   -41.473     0.479     28.61
Na            1.993e-03
   Na+             1.993e-03   2.348e-03    -2.701    -2.629     0.071      1.11
   NaOH            1.970e-28   5.935e-28   -27.705   -27.227     0.479     (0)  
O(0)          1.715e-10
   O2              8.576e-11   2.583e-10   -10.067    -9.588     0.479     30.40

------------------------------Saturation indices-------------------------------

	Phase               SI   log IAP   log K(298 K,   1 atm)

	Fe(OH)3(a)      -10.41     -5.52    4.89  Fe(OH)3
	Goethite         -4.44     -5.44   -1.00  FeOOH
	H2(g)           -38.37    -41.47   -3.10  H2
	H2O(g)           -1.58     -0.08    1.50  H2O
	Halite           -3.78     -2.20    1.58  NaCl
	Hematite         -6.79    -10.80   -4.01  Fe2O3
	O2(g)            -6.70     -9.59   -2.89  O2


------------------
End of simulation.
------------------

-------------------------------------
Reading input data for simulation 14.
-------------------------------------

	EQUILIBRIUM_PHASES 1 
	 Goethite 0 .1 
	SOLUTION 1 
	 Na 1
	 Br 1
	 Cl 1e-6 
	SAVE solution 1
	USER_PRINT
	 10 print sys("Cl"), sys("H"), sys("H") - get(1)
	 20 put(sys("H"), 1)
	END
-------------------------------------------
Beginning of initial solution calculations.
-------------------------------------------

Initial solution 1.	

----------------------------------User print-----------------------------------

  1.0000e-09   1.1101e+02  -5.1000e+00 

-----------------------------Solution composition------------------------------

	Elements           Molality       Moles

	Br                1.000e-03   1.000e-03
	Cl                1.000e-09   1.000e-09
	Na                1.000e-03   1.000e-03

----------------------------Description of solution----------------------------

                                       pH  =   7.000    
                                       pe  =   4.000    
       Specific Conductance (uS/cm, 25 oC) = 122
                          Density (g/cm3)  =   0.99712
                        Activity of water  =   1.000
                           Ionic strength  =   1.000e-03
                       Mass of water (kg)  =   1.000e+00
                 Total alkalinity (eq/kg)  =   4.191e-10
                    Total carbon (mol/kg)  =   0.000e+00
                       Total CO2 (mol/kg)  =   0.000e+00
                      Temperature (deg C)  =  25.00
                  Electrical balance (eq)  =  -1.419e-09
 Percent error, 100*(Cat-|An|)/(Cat+|An|)  =  -0.00
                               Iterations  =   3
                                  Total H  = 1.110124e+02
                                  Total O  = 5.550622e+01

----------------------------Distribution of species----------------------------

                                               Log       Log       Log    mole V
   Species          Molality    Activity  Molality  Activity     Gamma   cm3/mol

   OH-             1.039e-07   1.002e-07    -6.983    -6.999    -0.016     -4.08
   H+              1.035e-07   1.000e-07    -6.985    -7.000    -0.015      0.00
   H2O             5.551e+01   1.000e+00     1.744    -0.000     0.000     18.07
Br            1.000e-03
   Br-             1.000e-03   9.646e-04    -3.000    -3.016    -0.016     24.81
Cl            1.000e-09
   Cl-             1.000e-09   9.648e-10    -9.000    -9.016    -0.016     18.06
H(0)          1.416e-25
   H2              7.078e-26   7.079e-26   -25.150   -25.150     0.000     28.61
Na            1.000e-03
   Na+             1.000e-03   9.651e-04    -3.000    -3.015    -0.015     -1.20
   NaOH            9.670e-21   9.672e-21   -20.015   -20.014     0.000     (0)  
O(0)          0.000e+00
   O2              0.000e+00   0.000e+00   -42.080   -42.080     0.000     30.40

------------------------------Saturation indices-------------------------------

	Phase               SI   log IAP   log K(298 K,   1 atm)

	H2(g)           -22.05    -25.15   -3.10  H2
	H2O(g)           -1.50     -0.00    1.50  H2O
	Halite          -13.61    -12.03    1.58  NaCl
	O2(g)           -39.19    -42.08   -2.89  O2


-----------------------------------------
Beginning of batch-reaction calculations.
-----------------------------------------

Reaction step 1.

WARNING: Maximum iterations exceeded, 100

WARNING: Numerical method failed with this set of convergence parameters.

WARNING: Trying smaller step size, pe step size 10, 5 ... 

WARNING: Maximum iterations exceeded, 200

WARNING: Numerical method failed with this set of convergence parameters.

WARNING: Trying reduced tolerance 1e-16 ...

Using solution 1.	
Using pure phase assemblage 1.	

----------------------------------User print-----------------------------------

  1.0000e-09   1.1111e+02   1.0000e-01 

-------------------------------Phase assemblage--------------------------------

                                                      Moles in assemblage
Phase               SI  log IAP  log K(T, P)   Initial       Final       Delta

Goethite         -0.00    -1.00     -1.00    1.000e-01   1.000e-01   9.995e-11

-----------------------------Solution composition------------------------------

	Elements           Molality       Moles

	Br                1.000e-03   1.000e-03
	Cl                1.000e-09   1.000e-09
	Fe                4.996e-14   4.996e-14
	Na                1.000e-03   1.000e-03

----------------------------Description of solution----------------------------

                                       pH  =   7.000      Charge balance
                                       pe  =  10.616      Adjusted to redox equilibrium
       Specific Conductance (uS/cm, 25 oC) = 122
                          Density (g/cm3)  =   0.99712
                        Activity of water  =   1.000
                           Ionic strength  =   1.000e-03
                       Mass of water (kg)  =   1.000e+00
                 Total alkalinity (eq/kg)  =   4.191e-10
                    Total carbon (mol/kg)  =   0.000e+00
                       Total CO2 (mol/kg)  =   0.000e+00
                      Temperature (deg C)  =  25.00
                  Electrical balance (eq)  =  -1.419e-09
 Percent error, 100*(Cat-|An|)/(Cat+|An|)  =  -0.00
                               Iterations  =  32
                                  Total H  = 1.110124e+02
                                  Total O  = 5.550622e+01

----------------------------Distribution of species----------------------------

                                               Log       Log       Log    mole V
   Species          Molality    Activity  Molality  Activity     Gamma   cm3/mol

   OH-             1.039e-07   1.002e-07    -6.983    -6.999    -0.016     -4.08
   H+              1.035e-07   1.000e-07    -6.985    -7.000    -0.015      0.00
   H2O             5.551e+01   1.000e+00     1.744    -0.000     0.000     18.07
Br            1.000e-03
   Br-             1.000e-03   9.646e-04    -3.000    -3.016    -0.016     24.81
Cl            1.000e-09
   Cl-             1.000e-09   9.648e-10    -9.000    -9.016    -0.016     18.06
   FeCl+           3.502e-29   3.380e-29   -28.456   -28.471    -0.015     (0)  
   FeCl+2          3.361e-30   2.914e-30   -29.474   -29.536    -0.062     (0)  
   FeCl2+          1.301e-38   1.256e-38   -37.886   -37.901    -0.015     (0)  
   FeCl3           0.000e+00   0.000e+00   -47.917   -47.917     0.000     (0)  
Fe(2)         2.927e-20
   Fe+2            2.918e-20   2.538e-20   -19.535   -19.596    -0.061    -22.16
   FeOH+           8.315e-23   8.024e-23   -22.080   -22.096    -0.015     (0)  
   FeCl+           3.502e-29   3.380e-29   -28.456   -28.471    -0.015     (0)  
Fe(3)         4.996e-14
   Fe(OH)3         2.754e-14   2.754e-14   -13.560   -13.560     0.000     (0)  
   Fe(OH)2+        2.216e-14   2.138e-14   -13.655   -13.670    -0.015     (0)  
   Fe(OH)4-        2.603e-16   2.512e-16   -15.585   -15.600    -0.015     (0)  
   FeOH+2          7.446e-18   6.457e-18   -17.128   -17.190    -0.062     (0)  
   Fe+3            1.358e-22   1.000e-22   -21.867   -22.000    -0.133     (0)  
   FeCl+2          3.361e-30   2.914e-30   -29.474   -29.536    -0.062     (0)  
   Fe2(OH)2+4      1.985e-33   1.122e-33   -32.702   -32.950    -0.248     (0)  
   FeCl2+          1.301e-38   1.256e-38   -37.886   -37.901    -0.015     (0)  
   Fe3(OH)4+5      0.000e+00   0.000e+00   -43.913   -44.300    -0.387     (0)  
   FeCl3           0.000e+00   0.000e+00   -47.917   -47.917     0.000     (0)  
H(0)          8.312e-39
   H2              4.156e-39   4.157e-39   -38.381   -38.381     0.000     28.61
Na            1.000e-03
   Na+             1.000e-03   9.651e-04    -3.000    -3.015    -0.015     -1.20
   NaOH            9.670e-21   9.672e-21   -20.015   -20.014     0.000     (0)  
O(0)          4.824e-16
   O2              2.412e-16   2.412e-16   -15.618   -15.618     0.000     30.40

------------------------------Saturation indices-------------------------------

	Phase               SI   log IAP   log K(298 K,   1 atm)

	Fe(OH)3(a)       -5.89     -1.00    4.89  Fe(OH)3
	Goethite         -0.00     -1.00   -1.00  FeOOH
	H2(g)           -35.28    -38.38   -3.10  H2
	H2O(g)           -1.50     -0.00    1.50  H2O
	Halite          -13.61    -12.03    1.58  NaCl
	Hematite          2.01     -2.00   -4.01  Fe2O3
	O2(g)           -12.73    -15.62   -2.89  O2


------------------
End of simulation.
------------------

-------------------------------------
Reading input data for simulation 15.
-------------------------------------

	SURFACE 1 
	 Hfo_wCl Goethite 1e-2 2e3 
	 donnan # can be added, wonderful! 
	 equilibrate 1
	END
WARNING: Suggest using master species formula in SURFACE 
	 for surface related to equilibrium_phase: Hfo_wOH.
WARNING: Element Cl in sum of surface sites,
	 including Hfo_wOH * 0.01 mol sites/mol phase,
	 exceeds stoichiometry in the related phase Goethite, FeOOH.
WARNING: The mismatch in stoichiometry may cause mass-balance errors or unwanted redox reactions.
------------------------------------------------------
Beginning of initial surface-composition calculations.
------------------------------------------------------

Surface 1.	

Hfo           
	 -5.833e-15  Surface + diffuse layer charge, eq
	  1.234e-05  Surface charge, eq
	  5.953e-03  sigma, C/m**2
	  6.430e-02  psi, V
	 -2.503e+00  -F*psi/RT
	  8.186e-02  exp(-F*psi/RT)
	  2.000e+03  specific area, m**2/mol Goethite
	  2.000e+02  m**2 for   1.000e-01 moles of Goethite

	Water in diffuse layer: 2.000e-03 kg, 100.0% of total DDL-water.

	Total moles in diffuse layer (excluding water), Donnan calculation 

	Element       	     Moles
	Br            	  1.2654e-05
	Cl            	  1.2654e-11
	Fe            	  6.5368e-17
	H             	  1.3471e-09
	Na            	  3.1611e-07
	O             	  1.3144e-09

Hfo_w         
	  1.000e-03  moles	[0.01 mol/(mol Goethite)]
	                                   Mole                     Log
	Species               Moles    Fraction    Molality    Molality

	Hfo_wOH           7.674e-04       0.767   7.674e-04      -3.115
	Hfo_wOH2+         1.225e-04       0.122   1.225e-04      -3.912
	Hfo_wO-           1.101e-04       0.110   1.101e-04      -3.958
	Hfo_wOFe+         1.669e-20       0.000   1.669e-20     -19.778
	Hfo_wOFeOH        5.488e-21       0.000   5.488e-21     -20.261

------------------
End of simulation.
------------------

-------------------------------------
Reading input data for simulation 16.
-------------------------------------

	USE solution 1
	USE surface 1
	USE equilibrium_phases 1
	Reaction
		HBr 1
		5
	END 
-----------------------------------------
Beginning of batch-reaction calculations.
-----------------------------------------

Reaction step 1.

WARNING: Maximum iterations exceeded, 100

WARNING: Numerical method failed with this set of convergence parameters.

WARNING: Trying smaller step size, pe step size 10, 5 ... 

WARNING: Maximum iterations exceeded, 200

WARNING: Numerical method failed with this set of convergence parameters.

WARNING: Trying reduced tolerance 1e-16 ...

WARNING: Maximum iterations exceeded, 200

WARNING: Numerical method failed with this set of convergence parameters.

WARNING: Trying increased tolerance 1e-14 ...

WARNING: Maximum iterations exceeded, 200

WARNING: Numerical method failed with this set of convergence parameters.

WARNING: Trying diagonal scaling ...

WARNING: Maximum iterations exceeded, 200

WARNING: Numerical method failed with this set of convergence parameters.

WARNING: Trying diagonal scaling and reduced tolerance 1e-16 ...

WARNING: Maximum iterations exceeded, 200

WARNING: Numerical method failed with this set of convergence parameters.

WARNING: Trying scaling pure_phase columns 1e-10 ...

WARNING: Maximum iterations exceeded, 200

WARNING: Numerical method failed with this set of convergence parameters.

WARNING: Trying scaling pure_phase columns and diagonal scale 1e-10 ...

WARNING: Maximum iterations exceeded, 200

WARNING: Numerical method failed with this set of convergence parameters.

WARNING: Trying increased scaling 1e-09 ...

WARNING: Maximum iterations exceeded, 200

WARNING: Numerical method failed with this set of convergence parameters.

WARNING: Skipping optimize equations for first 5 iterations ...

WARNING: Maximum iterations exceeded, 100

WARNING: Numerical method failed with this set of convergence parameters.

WARNING: Adding inequality to make concentrations greater than zero.

WARNING: Maximum iterations exceeded, 100

WARNING: Numerical method failed with this set of convergence parameters.

WARNING: Trying reduced tolerance 1e-17 ...

WARNING: Maximum iterations exceeded, 200

WARNING: Numerical method failed with this set of convergence parameters.

WARNING: Trying reduced tolerance 1e-18 ...

WARNING: Maximum iterations exceeded, 200

WARNING: Numerical method failed with this set of convergence parameters.

WARNING: The program has failed to converge to a numerical solution.

The following equations were not satisfied:
ERROR:                   Br has not converged. Total: 5.001013e+00	Calculated: 5.001018e+00	Residual: -5.575206e-06

ERROR:                   Fe has not converged. Total: 4.746337e-06	Calculated: 2.230543e-07	Residual: 4.523282e-06

ERROR:                   Na has not converged. Total: 1.000316e-03	Calculated: 1.000317e-03	Residual: -5.294355e-10

ERROR:                   Mu Ionic strength has not converged. 	Residual: -3.855347e-06

ERROR:               A(H2O) Activity of water has not converged. 	Residual: 1.284759e-05

ERROR:                   pH Charge balance has not converged. 	Residual: 7.969492e-07

ERROR:             Hydrogen Mass of hydrogen has not converged. 	Residual: -1.525199e-05

ERROR:               Oxygen Mass of oxygen has not converged. 	Residual: 1.243153e-05

ERROR:                Hfo_w Surface mass balance has not converged. 	Residual: -1.560697e-06

ERROR:               Hfo_CB Surface charge/potential has not converged. 	Residual: 1.578696e-06

Using solution 1.	Solution after simulation 14.
Using surface 1.	
Using pure phase assemblage 1.	
Using reaction 1.	

Reaction 1.	

	  5.000e+00 moles of the following reaction have been added:

	                 Relative
	Reactant            moles

	HBr                  1.00000

	                 Relative
	Element             moles
	Br                   1.00000
	H                    1.00000

----------------------------------User print-----------------------------------

           0   1.1611e+02   5.0010e+00 

-------------------------------Phase assemblage--------------------------------

                                                      Moles in assemblage
Phase               SI  log IAP  log K(T, P)   Initial       Final       Delta

Goethite         -8.81    -9.81     -1.00    1.000e-01   1.000e-01  -4.746e-06

------------------------------Surface composition------------------------------

Hfo           
	 -1.579e-06  Surface + diffuse layer charge, eq
	  1.002e-03  Surface charge, eq
	  4.832e-01  sigma, C/m**2
	  7.054e-02  psi, V
	 -2.746e+00  -F*psi/RT
	  6.420e-02  exp(-F*psi/RT)
	  2.000e+03  specific area, m**2/mol Goethite
	  2.000e+02  m**2 for   1.000e-01 moles of Goethite

	Water in diffuse layer: 2.000e-03 kg, 100.0% of total DDL-water.

	Total moles in diffuse layer (excluding water), Donnan calculation 

	Element       	     Moles
	Br            	  1.0495e-02
	Cl            	  0.0000e+00
	Fe            	  3.8303e-10
	H             	  9.4897e-03
	Na            	  1.8989e-06
	O             	  2.6361e-12

Hfo_w         
	  1.000e-03  moles	[0.01 mol/(mol Goethite)]
	                                   Mole                     Log
	Species               Moles    Fraction    Molality    Molality

	Hfo_wOH2+         1.002e-03       1.002   1.002e-03      -2.999
	Hfo_wOH           2.264e-10       0.000   2.264e-10      -9.645
	Hfo_wO-           1.173e-18       0.000   1.173e-18     -17.931
	Hfo_wOFe+         5.192e-30       0.000   5.192e-30     -29.285
	Hfo_wOFeOH        5.115e-38       0.000   5.115e-38     -37.291

-----------------------------Solution composition------------------------------

	Elements           Molality       Moles

	Br                4.991e+00   4.991e+00
	Cl                0.000e+00   0.000e+00
	Fe                2.227e-07   2.227e-07
	Na                9.984e-04   9.984e-04

----------------------------Description of solution----------------------------

                                       pH  =  -0.548      Charge balance
                                       pe  =  19.938      Adjusted to redox equilibrium
       Specific Conductance (uS/cm, 25 oC) = 867680
                          Density (g/cm3)  =   1.23473
                        Activity of water  =   0.830
                           Ionic strength  =   4.991e+00
                       Mass of water (kg)  =   1.000e+00
                 Total alkalinity (eq/kg)  =  -4.990e+00
                    Total carbon (mol/kg)  =   0.000e+00
                       Total CO2 (mol/kg)  =   0.000e+00
                      Temperature (deg C)  =  25.00
                  Electrical balance (eq)  =  -7.984e-07
 Percent error, 100*(Cat-|An|)/(Cat+|An|)  =  -0.00
                               Iterations  = 201
                                  Total H  = 1.160019e+02
                                  Total O  = 5.550621e+01

----------------------------Distribution of species----------------------------

                                               Log       Log       Log    mole V
   Species          Molality    Activity  Molality  Activity     Gamma   cm3/mol

   H+              4.990e+00   3.534e+00     0.698     0.548    -0.150      0.00
   OH-             4.912e-15   2.355e-15   -14.309   -14.628    -0.319      6.01
   H2O             5.551e+01   8.303e-01     1.744    -0.081     0.000     18.07
Br            4.991e+00
   Br-             4.991e+00   2.199e+00     0.698     0.342    -0.356     26.85
Cl            0.000e+00
   Cl-             0.000e+00   0.000e+00   -41.344   -41.588    -0.244     19.89
   FeCl+2          0.000e+00   0.000e+00   -49.754   -48.109     1.645     (0)  
   FeCl+           0.000e+00   0.000e+00   -56.778   -56.367     0.411     (0)  
   FeCl2+          0.000e+00   0.000e+00   -89.459   -89.047     0.411     (0)  
   FeCl3           0.000e+00   0.000e+00  -132.135  -131.636     0.499     (0)  
Fe(2)         8.407e-15
   Fe+2            8.407e-15   1.205e-15   -14.075   -14.919    -0.844    -14.01
   FeOH+           3.474e-26   8.957e-26   -25.459   -25.048     0.411     (0)  
   FeCl+           0.000e+00   0.000e+00   -56.778   -56.367     0.411     (0)  
Fe(3)         2.227e-07
   Fe+3            2.227e-07   9.982e-09    -6.652    -8.001    -1.348     (0)  
   FeOH+2          3.429e-13   1.514e-11   -12.465   -10.820     1.645     (0)  
   Fe(OH)2+        4.571e-16   1.178e-15   -15.340   -14.929     0.411     (0)  
   Fe(OH)3         1.130e-23   3.567e-23   -22.947   -22.448     0.499     (0)  
   Fe2(OH)2+4      1.622e-27   6.172e-21   -26.790   -20.210     6.580     (0)  
   Fe(OH)4-        2.965e-33   7.644e-33   -32.528   -32.117     0.411     (0)  
   Fe3(OH)4+5      0.000e+00   1.520e-33   -43.100   -32.818    10.282     (0)  
   FeCl+2          0.000e+00   0.000e+00   -49.754   -48.109     1.645     (0)  
   FeCl2+          0.000e+00   0.000e+00   -89.459   -89.047     0.411     (0)  
   FeCl3           0.000e+00   0.000e+00  -132.135  -131.636     0.499     (0)  
H(0)          0.000e+00
   H2              0.000e+00   0.000e+00   -42.429   -41.930     0.499     28.61
Na            9.984e-04
   Na+             9.984e-04   1.214e-03    -3.001    -2.916     0.085      1.19
   NaOH            9.057e-29   2.858e-28   -28.043   -27.544     0.499     (0)  
O(0)          1.318e-09
   O2              6.589e-10   2.079e-09    -9.181    -8.682     0.499     30.40

------------------------------Saturation indices-------------------------------

	Phase               SI   log IAP   log K(298 K,   1 atm)

	Fe(OH)3(a)      -14.78     -9.89    4.89  Fe(OH)3
	Goethite         -8.81     -9.81   -1.00  FeOOH
	H2(g)           -38.83    -41.93   -3.10  H2
	H2O(g)           -1.58     -0.08    1.50  H2O
	Halite          -46.09    -44.50    1.58  NaCl
	Hematite        -15.53    -19.53   -4.01  Fe2O3
	O2(g)            -5.79     -8.68   -2.89  O2


ERROR: Numerical method failed on all combinations of convergence parameters
Stopping.
