WARNING: Database file from DATABASE keyword is used; command line argument ignored.
   Input file: sys_gas
  Output file: sys_gas.out
Database file: ../database/phreeqc.dat

------------------
Reading data base.
------------------

	SOLUTION_MASTER_SPECIES
	SOLUTION_SPECIES
	PHASES
	EXCHANGE_MASTER_SPECIES
	EXCHANGE_SPECIES
	SURFACE_MASTER_SPECIES
	SURFACE_SPECIES
	RATES
	END
------------------------------------
Reading input data for simulation 1.
------------------------------------

	DATABASE ../database/phreeqc.dat
	KNOBS
	step_size 10
	pe_step_size   2
	iterations 200
	SOLUTION 1
	pH 7 charge
	water 1e-3
	temp 102
	 pressure 5e2
	GAS_PHASE 1
	 fixed_volume
	 pressure 5e2
	 temp 102
	 volume 10
	 CH4(g) 250
	 CO2(g) 250
	REACTION
	 H 1
	 1 in 2
	INCREMENTAL_REACTIONS true
	USER_PRINT
	  5 tw =  tot("water")
	 10 m_h2o = tw / (18.06e-3)
	 20 t_mol = m_h2o + tot("C(-4)") * tw + tot("C(4)") * tw
	 30 x_CO2 = tot("C(4)") * tw / t_mol
	 32 x_CH4 = tot("C(-4)") * tw / t_mol
	 34 x = sys("C(4)") / (sys("C(4)") + sys("C(-4)"))
	 40 print "C(4), C(-4):    ", sys("C(4)"), sys("C(-4)")
	 50 print "Aq C(4), C(-4): ", TOTMOL("C(4)"), TOTMOL("C(-4)")
	 60 print "Gas C(4), C(-4): ", sys("C(4)") - TOTMOL("C(4)"), sys("C(-4)") - TOTMOL("C(-4)")
	 70 print "Gas C(4), C(-4): ", GAS("CO2(g)"), GAS("CH4(g)")
	USER_GRAPH
	  5 tw =  tot("water")
	 10 m_h2o = tw / (18.06e-3)
	 20 t_mol = m_h2o + tot("C(-4)") * tw + tot("C(4)") * tw
	 30 x_CO2 = tot("C(4)") * tw / t_mol
	 32 x_CH4 = tot("C(-4)") * tw / t_mol
	 34 x = sys("C(4)") / (sys("C(4)") + sys("C(-4)"))
	 36 print 'fraction of CO2 =', x
	 40 graph_x x
	 50 graph_y pr_p("CO2(g)") / x_CO2
	END
-------------------------------------------
Beginning of initial solution calculations.
-------------------------------------------

Initial solution 1.	

----------------------------------User print-----------------------------------

WARNING: Zero divide in BASIC line
 34  x = sys("C(4)") / (sys("C(4)") + sys("C(-4)")).
Value set to zero.
C(4), C(-4):                0            0 
Aq C(4), C(-4):             0            0 
Gas C(4), C(-4):             0            0 
Gas C(4), C(-4):             0            0 

-----------------------------Solution composition------------------------------

	Elements           Molality       Moles

	Pure water     

----------------------------Description of solution----------------------------

                                       pH  =   6.011      Charge balance
                                       pe  =   4.000    
       Specific Conductance (uS/cm, 102 oC) = 1
                          Density (g/cm3)  =   0.97927
                               Volume (L)  =   0.00102
                        Activity of water  =   1.000
                           Ionic strength  =   9.771e-07
                       Mass of water (kg)  =   1.000e-03
                 Total alkalinity (eq/kg)  =   0.000e+00
                    Total carbon (mol/kg)  =   0.000e+00
                       Total CO2 (mol/kg)  =   0.000e+00
                      Temperature (deg C)  = 102.00
                           Pressure (atm)  = 500.00
                  Electrical balance (eq)  =   0.000e+00
 Percent error, 100*(Cat-|An|)/(Cat+|An|)  =   0.00
                               Iterations  =   6
                                  Total H  = 1.110124e-01
                                  Total O  = 5.550622e-02

----------------------------Distribution of species----------------------------

                                               Log       Log       Log    mole V
   Species          Molality    Activity  Molality  Activity     Gamma   cm3/mol

   H+              9.771e-07   9.758e-07    -6.010    -6.011    -0.001      0.00
   OH-             9.771e-07   9.758e-07    -6.010    -6.011    -0.001     -7.98
   H2O             5.551e+01   1.000e+00     1.744    -0.000     0.000     18.40
H(0)          4.628e-24
   H2              2.314e-24   2.314e-24   -23.636   -23.636     0.000     28.36
O(0)          3.734e-26
   O2              1.867e-26   1.867e-26   -25.729   -25.729     0.000     32.53

------------------------------Saturation indices-------------------------------

	Phase               SI   log IAP   log K(375 K, 500 atm)

	H2(g)           -20.34    -23.64   -3.30  H2
	H2O(g)            0.16     -0.00   -0.16  H2O
	O2(g)           -22.39    -25.73   -3.34  O2


-----------------------------------------
Beginning of batch-reaction calculations.
-----------------------------------------

Reaction step 1.

WARNING: Numerical method failed, switching to numerical derivatives.
Using solution 1.	
Using gas phase 1.	
Using reaction 1.	

Reaction 1.	

	  5.000e-01 moles of the following reaction have been added:

	                 Relative
	Reactant            moles

	H                    1.00000

	                 Relative
	Element             moles
	H                    1.00000

----------------------------------User print-----------------------------------

C(4), C(-4):       9.9634e+01   9.9759e+01 
Aq C(4), C(-4):    3.0356e-03   4.8673e-04 
Gas C(4), C(-4):    9.9631e+01   9.9759e+01 
Gas C(4), C(-4):    9.9631e+01   9.9759e+01 

-----------------------------------Gas phase-----------------------------------

Total pressure: 762.03      atmospheres          (Peng-Robinson calculation)
    Gas volume:   1.00e+01 liters
  Molar volume:   5.02e-02 liters/mole
   P * Vm / RT:  1.24146  (Compressibility Factor Z) 

                                                        Moles in gas
                                            ----------------------------------
Component         log P           P    phi     Initial       Final       Delta

CH4(g)             2.58   3.813e+02  1.007   9.970e+01   9.976e+01   6.201e-02
CO2(g)             2.58   3.808e+02  0.484   9.970e+01   9.963e+01  -6.554e-02

-----------------------------Solution composition------------------------------

	Elements           Molality       Moles

	C                 1.083e+00   3.522e-03

----------------------------Description of solution----------------------------

                                       pH  =   3.116      Charge balance
                                       pe  =  -1.155      Adjusted to redox equilibrium
       Specific Conductance (uS/cm, 102 oC) = 983
                          Density (g/cm3)  =   0.99980
                               Volume (L)  =   0.00357
                        Activity of water  =   0.982
                           Ionic strength  =   7.914e-04
                       Mass of water (kg)  =   3.252e-03
                 Total alkalinity (eq/kg)  =  -7.903e-16
                       Total CO2 (mol/kg)  =   9.335e-01
                      Temperature (deg C)  = 102.00
                           Pressure (atm)  = 762.03
                  Electrical balance (eq)  =   2.570e-18
 Percent error, 100*(Cat-|An|)/(Cat+|An|)  =   0.00
                               Iterations  = 105
                                  Total H  = 3.629594e-01
                                  Total O  = 1.865773e-01

----------------------------Distribution of species----------------------------

                                               Log       Log       Log    mole V
   Species          Molality    Activity  Molality  Activity     Gamma   cm3/mol

   H+              7.914e-04   7.648e-04    -3.102    -3.116    -0.015      0.00
   OH-             1.605e-09   1.549e-09    -8.794    -8.810    -0.016     -8.68
   H2O             5.551e+01   9.816e-01     1.744    -0.008     0.000     18.20
C(-4)         1.497e-01
   CH4             1.497e-01   1.497e-01    -0.825    -0.825     0.000     32.22
C(4)          9.335e-01
   CO2             9.327e-01   9.328e-01    -0.030    -0.030     0.000     30.71
   HCO3-           7.914e-04   7.639e-04    -3.102    -3.117    -0.015     26.35
   CO3-2           1.609e-10   1.397e-10    -9.793    -9.855    -0.061     -2.16
H(0)          4.562e-08
   H2              2.281e-08   2.282e-08    -7.642    -7.642     0.000     28.28
O(0)          0.000e+00
   O2              0.000e+00   0.000e+00   -57.923   -57.923     0.000     31.95

------------------------------Saturation indices-------------------------------

	Phase               SI   log IAP   log K(375 K, 762 atm)

	CH4(g)            2.58     -0.82   -3.41  CH4	 Pressure 381.3 atm, phi 1.007.
	CO2(g)            2.27     -0.03   -2.30  CO2	 Pressure 380.8 atm, phi 0.484.
	H2(g)            -4.24     -7.64   -3.40  H2
	H2O(g)            0.21     -0.01   -0.22  H2O
	O2(g)           -54.47    -57.92   -3.46  O2


Reaction step 2.

Using solution 1.	
Using gas phase 1.	
Using reaction 1.	

Reaction 1.	

	  5.000e-01 moles of the following reaction have been added:

	                 Relative
	Reactant            moles

	H                    1.00000

	                 Relative
	Element             moles
	H                    1.00000

----------------------------------User print-----------------------------------

C(4), C(-4):       9.9572e+01   9.9822e+01 
Aq C(4), C(-4):    5.1348e-03   8.2432e-04 
Gas C(4), C(-4):    9.9567e+01   9.9821e+01 
Gas C(4), C(-4):    9.9567e+01   9.9821e+01 

-----------------------------------Gas phase-----------------------------------

Total pressure: 762.12      atmospheres          (Peng-Robinson calculation)
    Gas volume:   1.00e+01 liters
  Molar volume:   5.02e-02 liters/mole
   P * Vm / RT:  1.24162  (Compressibility Factor Z) 

                                                        Moles in gas
                                            ----------------------------------
Component         log P           P    phi     Initial       Final       Delta

CH4(g)             2.58   3.815e+02  1.007   9.976e+01   9.982e+01   6.216e-02
CO2(g)             2.58   3.806e+02  0.484   9.963e+01   9.957e+01  -6.460e-02

-----------------------------Solution composition------------------------------

	Elements           Molality       Moles

	C                 1.083e+00   5.959e-03

----------------------------Description of solution----------------------------

                                       pH  =   3.117      Charge balance
                                       pe  =  -1.155      Adjusted to redox equilibrium
       Specific Conductance (uS/cm, 102 oC) = 983
                          Density (g/cm3)  =   0.99979
                               Volume (L)  =   0.00604
                        Activity of water  =   0.982
                           Ionic strength  =   7.912e-04
                       Mass of water (kg)  =   5.504e-03
                 Total alkalinity (eq/kg)  =   3.266e-17
                       Total CO2 (mol/kg)  =   9.329e-01
                      Temperature (deg C)  = 102.00
                           Pressure (atm)  = 762.12
                  Electrical balance (eq)  =  -1.798e-19
 Percent error, 100*(Cat-|An|)/(Cat+|An|)  =  -0.00
                               Iterations  =  13
                                  Total H  = 6.143097e-01
                                  Total O  = 3.157758e-01

----------------------------Distribution of species----------------------------

                                               Log       Log       Log    mole V
   Species          Molality    Activity  Molality  Activity     Gamma   cm3/mol

   H+              7.912e-04   7.646e-04    -3.102    -3.117    -0.015      0.00
   OH-             1.606e-09   1.549e-09    -8.794    -8.810    -0.016     -8.68
   H2O             5.551e+01   9.816e-01     1.744    -0.008     0.000     18.20
C(-4)         1.498e-01
   CH4             1.498e-01   1.498e-01    -0.825    -0.824     0.000     32.22
C(4)          9.329e-01
   CO2             9.321e-01   9.323e-01    -0.031    -0.030     0.000     30.71
   HCO3-           7.912e-04   7.637e-04    -3.102    -3.117    -0.015     26.36
   CO3-2           1.609e-10   1.397e-10    -9.793    -9.855    -0.061     -2.16
H(0)          4.564e-08
   H2              2.282e-08   2.282e-08    -7.642    -7.642     0.000     28.28
O(0)          0.000e+00
   O2              0.000e+00   0.000e+00   -57.923   -57.923     0.000     31.95

------------------------------Saturation indices-------------------------------

	Phase               SI   log IAP   log K(375 K, 762 atm)

	CH4(g)            2.58     -0.82   -3.41  CH4	 Pressure 381.5 atm, phi 1.007.
	CO2(g)            2.27     -0.03   -2.30  CO2	 Pressure 380.6 atm, phi 0.484.
	H2(g)            -4.24     -7.64   -3.40  H2
	H2O(g)            0.21     -0.01   -0.22  H2O
	O2(g)           -54.47    -57.92   -3.46  O2


------------------
End of simulation.
------------------

------------------------------------
Reading input data for simulation 2.
------------------------------------

------------------------------
End of Run after 0.01 Seconds.
------------------------------

