   Input file: t922
  Output file: t922.out
Database file: ../database/phreeqc.dat

------------------
Reading data base.
------------------

	SOLUTION_MASTER_SPECIES
	SOLUTION_SPECIES
	PHASES
	EXCHANGE_MASTER_SPECIES
	EXCHANGE_SPECIES
	SURFACE_MASTER_SPECIES
	SURFACE_SPECIES
	RATES
	END
------------------------------------
Reading input data for simulation 1.
------------------------------------

	DATABASE ../database/phreeqc.dat
	knobs
		logfile
	TITLE  No_conv
	SOLUTION 1-2
	        temp    20.
	        units   mol/kgw
	        pH      8.292
	        pe      -4.483
	        Mg      5.0e-3 
	        Cl     10.0e-3
	        C(4)    2.372e-3
	        Ca      3.715e-4
	EQUILIBRIUM_PHASES 1-2
	Goethite    3.0   0.1
	SAVE solution 1-2
	END
-----
TITLE
-----

  No_conv

-------------------------------------------
Beginning of initial solution calculations.
-------------------------------------------

Initial solution 1.	

-----------------------------Solution composition------------------------------

	Elements           Molality       Moles

	C(4)              2.372e-03   2.372e-03
	Ca                3.715e-04   3.715e-04
	Cl                1.000e-02   1.000e-02
	Mg                5.000e-03   5.000e-03

----------------------------Description of solution----------------------------

                                       pH  =   8.292    
                                       pe  =  -4.483    
       Specific Conductance (uS/cm, 20 oC) = 1117
                          Density (g/cm3)  =   0.99867
                        Activity of water  =   1.000
                           Ionic strength  =   1.667e-02
                       Mass of water (kg)  =   1.000e+00
                 Total alkalinity (eq/kg)  =   2.425e-03
                       Total CO2 (mol/kg)  =   2.372e-03
                      Temperature (deg C)  =  20.00
                  Electrical balance (eq)  =  -1.682e-03
 Percent error, 100*(Cat-|An|)/(Cat+|An|)  =  -7.38
                               Iterations  =   8
                                  Total H  = 1.110147e+02
                                  Total O  = 5.551331e+01

----------------------------Distribution of species----------------------------

                                            Log       Log         Log     mole V
   Species          Molality    Activity  Molality  Activity     Gamma   cm3/mol

   OH-             1.527e-06   1.339e-06    -5.816    -5.873    -0.057     -3.89
   H+              5.692e-09   5.105e-09    -8.245    -8.292    -0.047      0.00
   H2O             5.551e+01   9.997e-01     1.744    -0.000     0.000     18.05
C(4)          2.372e-03
   HCO3-           2.192e-03   1.940e-03    -2.659    -2.712    -0.053     24.36
   MgHCO3+         7.631e-05   6.718e-05    -4.117    -4.173    -0.055     (0)  
   MgCO3           4.252e-05   4.269e-05    -4.371    -4.370     0.002     25.00
   CO3-2           2.611e-05   1.600e-05    -4.583    -4.796    -0.213     -4.51
   CO2             2.377e-05   2.386e-05    -4.624    -4.622     0.002     25.18
   CaHCO3+         5.673e-06   5.019e-06    -5.246    -5.299    -0.053     20.11
   CaCO3           5.398e-06   5.419e-06    -5.268    -5.266     0.002     25.00
Ca            3.715e-04
   Ca+2            3.604e-04   2.208e-04    -3.443    -3.656    -0.213    -17.99
   CaHCO3+         5.673e-06   5.019e-06    -5.246    -5.299    -0.053     20.11
   CaCO3           5.398e-06   5.419e-06    -5.268    -5.266     0.002     25.00
   CaOH+           8.150e-09   7.175e-09    -8.089    -8.144    -0.055     (0)  
Cl            1.000e-02
   Cl-             1.000e-02   8.778e-03    -2.000    -2.057    -0.057     17.95
H(0)          3.576e-11
   H2              1.788e-11   1.795e-11   -10.748   -10.746     0.002     20.00
Mg            5.000e-03
   Mg+2            4.880e-03   3.019e-03    -2.312    -2.520    -0.209    -21.22
   MgHCO3+         7.631e-05   6.718e-05    -4.117    -4.173    -0.055     (0)  
   MgCO3           4.252e-05   4.269e-05    -4.371    -4.370     0.002     25.00
   MgOH+           1.540e-06   1.356e-06    -5.812    -5.868    -0.055     (0)  
O(0)          0.000e+00
   O2              0.000e+00   0.000e+00   -72.531   -72.529     0.002     35.00

------------------------------Saturation indices-------------------------------

	Phase               SI   log IAP   log K(293 K,   1 atm)

	Aragonite        -0.15     -8.45   -8.31  CaCO3
	Calcite           0.00     -8.45   -8.45  CaCO3
	CO2(g)           -3.22     -4.62   -1.41  CO2
	Dolomite          1.20    -15.77  -16.97  CaMg(CO3)2
	H2(g)            -7.66    -10.75   -3.09  H2
	H2O(g)           -1.63     -0.00    1.63  H2O
	O2(g)           -69.68    -72.53   -2.85  O2


-----------------------------------------
Beginning of batch-reaction calculations.
-----------------------------------------

Reaction step 1.

Using solution 1.	
Using pure phase assemblage 1.	

-------------------------------Phase assemblage--------------------------------

                                                      Moles in assemblage
Phase               SI  log IAP  log K(T, P)   Initial       Final       Delta

Goethite          3.00     2.18     -0.82    1.000e-01   1.000e-01  -6.069e-11

-----------------------------Solution composition------------------------------

	Elements           Molality       Moles

	C                 2.372e-03   2.372e-03
	Ca                3.715e-04   3.715e-04
	Cl                1.000e-02   1.000e-02
	Fe                6.069e-11   6.069e-11
	Mg                5.000e-03   5.000e-03

----------------------------Description of solution----------------------------

                                       pH  =   8.292      Charge balance
                                       pe  =   1.251      Adjusted to redox equilibrium
       Specific Conductance (uS/cm, 20 oC) = 1117
                          Density (g/cm3)  =   0.99867
                        Activity of water  =   1.000
                           Ionic strength  =   1.667e-02
                       Mass of water (kg)  =   1.000e+00
                 Total alkalinity (eq/kg)  =   2.425e-03
                       Total CO2 (mol/kg)  =   2.372e-03
                      Temperature (deg C)  =  20.00
                  Electrical balance (eq)  =  -1.682e-03
 Percent error, 100*(Cat-|An|)/(Cat+|An|)  =  -7.38
                               Iterations  =  12
                                  Total H  = 1.110147e+02
                                  Total O  = 5.551331e+01

----------------------------Distribution of species----------------------------

                                            Log       Log         Log     mole V
   Species          Molality    Activity  Molality  Activity     Gamma   cm3/mol

   OH-             1.527e-06   1.339e-06    -5.816    -5.873    -0.057     -3.89
   H+              5.692e-09   5.105e-09    -8.245    -8.292    -0.047      0.00
   H2O             5.551e+01   9.997e-01     1.744    -0.000     0.000     18.05
C(-4)         0.000e+00
   CH4             0.000e+00   0.000e+00   -55.888   -55.887     0.002     33.00
C(4)          2.372e-03
   HCO3-           2.192e-03   1.940e-03    -2.659    -2.712    -0.053     24.36
   MgHCO3+         7.631e-05   6.718e-05    -4.117    -4.173    -0.055     (0)  
   MgCO3           4.252e-05   4.269e-05    -4.371    -4.370     0.002     25.00
   CO3-2           2.611e-05   1.600e-05    -4.583    -4.796    -0.213     -4.51
   CO2             2.377e-05   2.386e-05    -4.624    -4.622     0.002     25.18
   CaHCO3+         5.673e-06   5.019e-06    -5.246    -5.299    -0.053     20.11
   CaCO3           5.398e-06   5.419e-06    -5.268    -5.266     0.002     25.00
   FeCO3           6.000e-12   6.023e-12   -11.222   -11.220     0.002     (0)  
   FeHCO3+         3.457e-12   3.043e-12   -11.461   -11.517    -0.055     (0)  
Ca            3.715e-04
   Ca+2            3.604e-04   2.208e-04    -3.443    -3.656    -0.213    -17.99
   CaHCO3+         5.673e-06   5.019e-06    -5.246    -5.299    -0.053     20.11
   CaCO3           5.398e-06   5.419e-06    -5.268    -5.266     0.002     25.00
   CaOH+           8.150e-09   7.175e-09    -8.089    -8.144    -0.055     (0)  
Cl            1.000e-02
   Cl-             1.000e-02   8.778e-03    -2.000    -2.057    -0.057     17.95
   FeCl+           2.159e-13   1.901e-13   -12.666   -12.721    -0.055     (0)  
   FeCl+2          7.583e-24   4.557e-24   -23.120   -23.341    -0.221     (0)  
   FeCl2+          2.384e-25   2.099e-25   -24.623   -24.678    -0.055     (0)  
   FeCl3           1.835e-28   1.842e-28   -27.736   -27.735     0.002     (0)  
Fe(2)         3.577e-11
   Fe+2            2.535e-11   1.569e-11   -10.596   -10.804    -0.208    -22.06
   FeCO3           6.000e-12   6.023e-12   -11.222   -11.220     0.002     (0)  
   FeHCO3+         3.457e-12   3.043e-12   -11.461   -11.517    -0.055     (0)  
   FeOH+           7.547e-13   6.645e-13   -12.122   -12.178    -0.055     (0)  
   FeCl+           2.159e-13   1.901e-13   -12.666   -12.721    -0.055     (0)  
Fe(3)         2.491e-11
   Fe(OH)3         2.038e-11   2.046e-11   -10.691   -10.689     0.002     (0)  
   Fe(OH)4-        3.383e-12   2.978e-12   -11.471   -11.526    -0.055     (0)  
   Fe(OH)2+        1.150e-12   1.012e-12   -11.939   -11.995    -0.055     (0)  
   FeOH+2          3.150e-17   1.893e-17   -16.502   -16.723    -0.221     (0)  
   Fe+3            5.382e-23   2.020e-23   -22.269   -22.695    -0.426     (0)  
   FeCl+2          7.583e-24   4.557e-24   -23.120   -23.341    -0.221     (0)  
   FeCl2+          2.384e-25   2.099e-25   -24.623   -24.678    -0.055     (0)  
   FeCl3           1.835e-28   1.842e-28   -27.736   -27.735     0.002     (0)  
   Fe2(OH)2+4      9.128e-32   1.190e-32   -31.040   -31.924    -0.885     (0)  
   Fe3(OH)4+5      0.000e+00   0.000e+00   -40.013   -41.395    -1.383     (0)  
H(0)          1.219e-22
   H2              6.095e-23   6.118e-23   -22.215   -22.213     0.002     20.00
Mg            5.000e-03
   Mg+2            4.880e-03   3.019e-03    -2.312    -2.520    -0.209    -21.22
   MgHCO3+         7.631e-05   6.718e-05    -4.117    -4.173    -0.055     (0)  
   MgCO3           4.252e-05   4.269e-05    -4.371    -4.370     0.002     25.00
   MgOH+           1.540e-06   1.356e-06    -5.812    -5.868    -0.055     (0)  
O(0)          0.000e+00
   O2              0.000e+00   0.000e+00   -49.596   -49.595     0.002     35.00

------------------------------Saturation indices-------------------------------

	Phase               SI   log IAP   log K(293 K,   1 atm)

	Aragonite        -0.15     -8.45   -8.31  CaCO3
	Calcite           0.00     -8.45   -8.45  CaCO3
	CH4(g)          -53.08    -55.89   -2.80  CH4
	CO2(g)           -3.22     -4.62   -1.41  CO2
	Dolomite          1.20    -15.77  -16.97  CaMg(CO3)2
	Fe(OH)3(a)       -2.71      2.18    4.89  Fe(OH)3
	Goethite          3.00      2.18   -0.82  FeOOH
	H2(g)           -19.13    -22.21   -3.09  H2
	H2O(g)           -1.63     -0.00    1.63  H2O
	Hematite          7.98      4.36   -3.62  Fe2O3
	O2(g)           -46.74    -49.59   -2.85  O2
	Siderite         -4.74    -15.60  -10.86  FeCO3


------------------
End of simulation.
------------------

------------------------------------
Reading input data for simulation 2.
------------------------------------

	USE solution 1
	EXCHANGE 1-2
		equilibrate  1
	        X      0.125
	SURFACE 1-2
		Hfo_w    1.0e-2  600  8.8
		equilibrate  1
	SAVE surface 1-2
	SAVE exchange 1-2
	END
-------------------------------------------------------
Beginning of initial exchange-composition calculations.
-------------------------------------------------------

Exchange 1.	

X                1.250e-01 mol

	                               Equiv-    Equivalent      Log 
	Species             Moles      alents      Fraction     Gamma

	MgX2              5.594e-02   1.119e-01   8.951e-01    -0.209
	CaX2              6.558e-03   1.312e-02   1.049e-01    -0.213
	FeX2              2.115e-10   4.231e-10   3.385e-09    -0.208

------------------------------------------------------
Beginning of initial surface-composition calculations.
------------------------------------------------------

Surface 1.	

Hfo           
	  7.235e-04  Surface charge, eq
	  1.322e-02  sigma, C/m**2
	  4.010e-02  psi, V
	 -1.587e+00  -F*psi/RT
	  2.045e-01  exp(-F*psi/RT)
	  6.000e+02  specific area, m**2/g
	  5.280e+03  m**2 for   8.800e+00 g


Hfo_w         
	  1.000e-02  moles
	                                   Mole                     Log
	Species               Moles    Fraction    Molality    Molality

	Hfo_wOMg+         4.453e-03       0.445   4.453e-03      -2.351
	Hfo_wCO3-         2.127e-03       0.213   2.127e-03      -2.672
	Hfo_wO-           1.650e-03       0.165   1.650e-03      -2.782
	Hfo_wOH           1.466e-03       0.147   1.466e-03      -2.834
	Hfo_wHCO3         2.550e-04       0.025   2.550e-04      -3.594
	Hfo_wOH2+         2.984e-05       0.003   2.984e-05      -4.525
	Hfo_wOCa+         1.831e-05       0.002   1.831e-05      -4.737
	Hfo_wOFeOH        2.487e-09       0.000   2.487e-09      -8.604
	Hfo_wOFe+         9.648e-10       0.000   9.648e-10      -9.016

-----------------------------------------
Beginning of batch-reaction calculations.
-----------------------------------------

Reaction step 1.

Using solution 1.	Solution after simulation 1.
Using exchange 1.	Exchange assemblage after simulation 2.
Using surface 1.	

------------------------------Surface composition------------------------------

Hfo           
	  7.235e-04  Surface charge, eq
	  1.322e-02  sigma, C/m**2
	  4.010e-02  psi, V
	 -1.587e+00  -F*psi/RT
	  2.045e-01  exp(-F*psi/RT)
	  6.000e+02  specific area, m**2/g
	  5.280e+03  m**2 for   8.800e+00 g


Hfo_w         
	  1.000e-02  moles
	                                   Mole                     Log
	Species               Moles    Fraction    Molality    Molality

	Hfo_wOMg+         4.453e-03       0.445   4.453e-03      -2.351
	Hfo_wCO3-         2.127e-03       0.213   2.127e-03      -2.672
	Hfo_wO-           1.650e-03       0.165   1.650e-03      -2.782
	Hfo_wOH           1.466e-03       0.147   1.466e-03      -2.834
	Hfo_wHCO3         2.550e-04       0.025   2.550e-04      -3.594
	Hfo_wOH2+         2.984e-05       0.003   2.984e-05      -4.525
	Hfo_wOCa+         1.831e-05       0.002   1.831e-05      -4.737
	Hfo_wOFeOH        2.487e-09       0.000   2.487e-09      -8.604
	Hfo_wOFe+         9.648e-10       0.000   9.648e-10      -9.016

-----------------------------Exchange composition------------------------------

X                1.250e-01 mol

	                               Equiv-    Equivalent      Log 
	Species             Moles      alents      Fraction     Gamma

	MgX2              5.594e-02   1.119e-01   8.951e-01    -0.209
	CaX2              6.558e-03   1.312e-02   1.049e-01    -0.213
	FeX2              2.115e-10   4.231e-10   3.385e-09    -0.208

-----------------------------Solution composition------------------------------

	Elements           Molality       Moles

	C                 2.372e-03   2.372e-03
	Ca                3.715e-04   3.715e-04
	Cl                1.000e-02   1.000e-02
	Fe                6.068e-11   6.068e-11
	Mg                5.000e-03   5.000e-03

----------------------------Description of solution----------------------------

                                       pH  =   8.292      Charge balance
                                       pe  =   1.250      Adjusted to redox equilibrium
       Specific Conductance (uS/cm, 20 oC) = 1117
                          Density (g/cm3)  =   0.99867
                        Activity of water  =   1.000
                           Ionic strength  =   1.667e-02
                       Mass of water (kg)  =   1.000e+00
                 Total alkalinity (eq/kg)  =   2.425e-03
                       Total CO2 (mol/kg)  =   2.372e-03
                      Temperature (deg C)  =  20.00
                  Electrical balance (eq)  =  -1.682e-03
 Percent error, 100*(Cat-|An|)/(Cat+|An|)  =  -7.38
                               Iterations  =   5
                                  Total H  = 1.110147e+02
                                  Total O  = 5.551331e+01

----------------------------Distribution of species----------------------------

                                            Log       Log         Log     mole V
   Species          Molality    Activity  Molality  Activity     Gamma   cm3/mol

   OH-             1.527e-06   1.339e-06    -5.816    -5.873    -0.057     -3.89
   H+              5.692e-09   5.105e-09    -8.245    -8.292    -0.047      0.00
   H2O             5.551e+01   9.997e-01     1.744    -0.000     0.000     18.05
C(-4)         0.000e+00
   CH4             0.000e+00   0.000e+00   -55.887   -55.885     0.002     33.00
C(4)          2.372e-03
   HCO3-           2.192e-03   1.940e-03    -2.659    -2.712    -0.053     24.36
   MgHCO3+         7.631e-05   6.718e-05    -4.117    -4.173    -0.055     (0)  
   MgCO3           4.252e-05   4.269e-05    -4.371    -4.370     0.002     25.00
   CO3-2           2.611e-05   1.600e-05    -4.583    -4.796    -0.213     -4.51
   CO2             2.377e-05   2.386e-05    -4.624    -4.622     0.002     25.18
   CaHCO3+         5.673e-06   5.019e-06    -5.246    -5.299    -0.053     20.11
   CaCO3           5.398e-06   5.419e-06    -5.268    -5.266     0.002     25.00
   FeCO3           6.000e-12   6.023e-12   -11.222   -11.220     0.002     (0)  
   FeHCO3+         3.457e-12   3.043e-12   -11.461   -11.517    -0.055     (0)  
Ca            3.715e-04
   Ca+2            3.604e-04   2.208e-04    -3.443    -3.656    -0.213    -17.99
   CaHCO3+         5.673e-06   5.019e-06    -5.246    -5.299    -0.053     20.11
   CaCO3           5.398e-06   5.419e-06    -5.268    -5.266     0.002     25.00
   CaOH+           8.150e-09   7.175e-09    -8.089    -8.144    -0.055     (0)  
Cl            1.000e-02
   Cl-             1.000e-02   8.778e-03    -2.000    -2.057    -0.057     17.95
   FeCl+           2.159e-13   1.901e-13   -12.666   -12.721    -0.055     (0)  
   FeCl+2          7.580e-24   4.555e-24   -23.120   -23.342    -0.221     (0)  
   FeCl2+          2.383e-25   2.098e-25   -24.623   -24.678    -0.055     (0)  
   FeCl3           1.835e-28   1.842e-28   -27.736   -27.735     0.002     (0)  
Fe(2)         3.578e-11
   Fe+2            2.535e-11   1.569e-11   -10.596   -10.804    -0.208    -22.06
   FeCO3           6.000e-12   6.023e-12   -11.222   -11.220     0.002     (0)  
   FeHCO3+         3.457e-12   3.043e-12   -11.461   -11.517    -0.055     (0)  
   FeOH+           7.547e-13   6.645e-13   -12.122   -12.178    -0.055     (0)  
   FeCl+           2.159e-13   1.901e-13   -12.666   -12.721    -0.055     (0)  
Fe(3)         2.490e-11
   Fe(OH)3         2.037e-11   2.045e-11   -10.691   -10.689     0.002     (0)  
   Fe(OH)4-        3.381e-12   2.977e-12   -11.471   -11.526    -0.055     (0)  
   Fe(OH)2+        1.149e-12   1.012e-12   -11.940   -11.995    -0.055     (0)  
   FeOH+2          3.149e-17   1.892e-17   -16.502   -16.723    -0.221     (0)  
   Fe+3            5.379e-23   2.019e-23   -22.269   -22.695    -0.426     (0)  
   FeCl+2          7.580e-24   4.555e-24   -23.120   -23.342    -0.221     (0)  
   FeCl2+          2.383e-25   2.098e-25   -24.623   -24.678    -0.055     (0)  
   FeCl3           1.835e-28   1.842e-28   -27.736   -27.735     0.002     (0)  
   Fe2(OH)2+4      9.120e-32   1.189e-32   -31.040   -31.925    -0.885     (0)  
   Fe3(OH)4+5      0.000e+00   0.000e+00   -40.013   -41.396    -1.383     (0)  
H(0)          1.220e-22
   H2              6.100e-23   6.124e-23   -22.215   -22.213     0.002     20.00
Mg            5.000e-03
   Mg+2            4.880e-03   3.019e-03    -2.312    -2.520    -0.209    -21.22
   MgHCO3+         7.631e-05   6.718e-05    -4.117    -4.173    -0.055     (0)  
   MgCO3           4.252e-05   4.269e-05    -4.371    -4.370     0.002     25.00
   MgOH+           1.540e-06   1.356e-06    -5.812    -5.868    -0.055     (0)  
O(0)          0.000e+00
   O2              0.000e+00   0.000e+00   -49.597   -49.595     0.002     35.00

------------------------------Saturation indices-------------------------------

	Phase               SI   log IAP   log K(293 K,   1 atm)

	Aragonite        -0.15     -8.45   -8.31  CaCO3
	Calcite           0.00     -8.45   -8.45  CaCO3
	CH4(g)          -53.08    -55.89   -2.80  CH4
	CO2(g)           -3.22     -4.62   -1.41  CO2
	Dolomite          1.20    -15.77  -16.97  CaMg(CO3)2
	Fe(OH)3(a)       -2.71      2.18    4.89  Fe(OH)3
	Goethite          3.00      2.18   -0.82  FeOOH
	H2(g)           -19.12    -22.21   -3.09  H2
	H2O(g)           -1.63     -0.00    1.63  H2O
	Hematite          7.98      4.36   -3.62  Fe2O3
	O2(g)           -46.74    -49.60   -2.85  O2
	Siderite         -4.74    -15.60  -10.86  FeCO3


------------------
End of simulation.
------------------

------------------------------------
Reading input data for simulation 3.
------------------------------------

	RATES
	Calcite
	   start
	1 rem	parm(1) = A/V, 1/dm parm(2) = exponent for m/m0
	10 si_cc = si("Calcite")
	20 if (m <= 0  and si_cc < 0) then goto 200
	30 k1 = 10^(0.198 - 444.0 / (273.16 + tc) )
	40 k2 = 10^(2.84 - 2177.0 / (273.16 + tc) )
	50 if tc <= 25 then k3 = 10^(-5.86 - 317.0 / (273.16 + tc) )
	60 if tc > 25 then k3 = 10^(-1.1 - 1737.0 / (273.16 + tc) )
	70     t = 1
	80     if m0 > 0 then t = m/m0
	90     if t = 0 then t = 1
	100    moles = parm(1) * 0.1 * (t)^parm(2)
	110    moles = moles * (k1 * act("H+") + k2 * act("CO2") + k3 * act("H2O"))
	120    moles = moles * (1 - 10^(2/3*si_cc))
	130    moles = moles * time
	140if (moles > m) then moles = m
	150if (moles >= 0) then goto 200
	160    temp = tot("Ca")
	170    mc  = tot("C(4)")
	180    if mc < temp then temp = mc
	190    if -moles > temp then moles = -temp
	200save moles
	   end
	END
------------------
End of simulation.
------------------

------------------------------------
Reading input data for simulation 4.
------------------------------------

	SOLUTION 0   5 mmol/l MgCl2 + 25 mmol/l O2
	        temp    20.
	        units   mol/kgw
	        pH      6.923
	        pe     14.618
	        Mg      5.0e-3
	        Cl     10.0e-3
		Fe	1e-8
		Ca	1e-8
		C(4)	1e-8
	Save solution 0
	END
-------------------------------------------
Beginning of initial solution calculations.
-------------------------------------------

Initial solution 0.	5 mmol/l MgCl2 + 25 mmol/l O2

-----------------------------Solution composition------------------------------

	Elements           Molality       Moles

	C(4)              1.000e-08   1.000e-08
	Ca                1.000e-08   1.000e-08
	Cl                1.000e-02   1.000e-02
	Fe                1.000e-08   1.000e-08
	Mg                5.000e-03   5.000e-03

----------------------------Description of solution----------------------------

                                       pH  =   6.923    
                                       pe  =  14.618    
       Specific Conductance (uS/cm, 20 oC) = 1015
                          Density (g/cm3)  =   0.99849
                        Activity of water  =   0.999
                           Ionic strength  =   1.500e-02
                       Mass of water (kg)  =   1.000e+00
                 Total alkalinity (eq/kg)  =   1.310e-08
                       Total CO2 (mol/kg)  =   1.000e-08
                      Temperature (deg C)  =  20.00
                  Electrical balance (eq)  =   1.690e-08
 Percent error, 100*(Cat-|An|)/(Cat+|An|)  =   0.00
                               Iterations  =   5
                                  Total H  = 1.110124e+02
                                  Total O  = 5.555608e+01

----------------------------Distribution of species----------------------------

                                            Log       Log         Log     mole V
   Species          Molality    Activity  Molality  Activity     Gamma   cm3/mol

   H+              1.326e-07   1.194e-07    -6.877    -6.923    -0.046      0.00
   OH-             6.486e-08   5.724e-08    -7.188    -7.242    -0.054     -3.90
   H2O             5.551e+01   9.993e-01     1.744    -0.000     0.000     18.05
C(4)          1.000e-08
   HCO3-           7.735e-09   6.879e-09    -8.112    -8.162    -0.051     24.35
   CO2             1.973e-09   1.980e-09    -8.705    -8.703     0.002     25.18
   MgHCO3+         2.813e-10   2.490e-10    -9.551    -9.604    -0.053     (0)  
   MgCO3           6.742e-12   6.765e-12   -11.171   -11.170     0.002     25.00
   CO3-2           3.878e-12   2.426e-12   -11.411   -11.615    -0.204     -4.53
   CaHCO3+         5.669e-16   5.042e-16   -15.247   -15.297    -0.051     20.11
   CaCO3           2.319e-17   2.327e-17   -16.635   -16.633     0.002     25.00
   FeHCO3+         1.417e-24   1.255e-24   -23.849   -23.901    -0.053     (0)  
   FeCO3           1.058e-25   1.062e-25   -24.976   -24.974     0.002     (0)  
Ca            1.000e-08
   Ca+2            1.000e-08   6.253e-09    -8.000    -8.204    -0.204    -18.01
   CaOH+           9.811e-15   8.686e-15   -14.008   -14.061    -0.053     (0)  
   CaHCO3+         5.669e-16   5.042e-16   -15.247   -15.297    -0.051     20.11
   CaCO3           2.319e-17   2.327e-17   -16.635   -16.633     0.002     25.00
Cl            1.000e-02
   Cl-             1.000e-02   8.829e-03    -2.000    -2.054    -0.054     17.95
   FeCl+2          2.021e-17   1.241e-17   -16.695   -16.906    -0.212     (0)  
   FeCl2+          6.497e-19   5.751e-19   -18.187   -18.240    -0.053     (0)  
   FeCl+           2.511e-20   2.223e-20   -19.600   -19.653    -0.053     (0)  
   FeCl3           5.060e-22   5.078e-22   -21.296   -21.294     0.002     (0)  
Fe(2)         2.917e-18
   Fe+2            2.888e-18   1.824e-18   -17.539   -17.739    -0.200    -22.09
   FeCl+           2.511e-20   2.223e-20   -19.600   -19.653    -0.053     (0)  
   FeOH+           3.729e-21   3.301e-21   -20.428   -20.481    -0.053     (0)  
   FeHCO3+         1.417e-24   1.255e-24   -23.849   -23.901    -0.053     (0)  
   FeCO3           1.058e-25   1.062e-25   -24.976   -24.974     0.002     (0)  
Fe(3)         1.000e-08
   Fe(OH)2+        5.656e-09   5.007e-09    -8.248    -8.300    -0.053     (0)  
   Fe(OH)3         4.310e-09   4.325e-09    -8.365    -8.364     0.002     (0)  
   Fe(OH)4-        3.040e-11   2.691e-11   -10.517   -10.570    -0.053     (0)  
   FeOH+2          3.567e-12   2.191e-12   -11.448   -11.659    -0.212     (0)  
   Fe+3            1.404e-16   5.469e-17   -15.853   -16.262    -0.410     (0)  
   FeCl+2          2.021e-17   1.241e-17   -16.695   -16.906    -0.212     (0)  
   FeCl2+          6.497e-19   5.751e-19   -18.187   -18.240    -0.053     (0)  
   Fe2(OH)2+4      1.120e-21   1.594e-22   -20.951   -21.797    -0.847     (0)  
   FeCl3           5.060e-22   5.078e-22   -21.296   -21.294     0.002     (0)  
   Fe3(OH)4+5      5.605e-27   2.666e-28   -26.251   -27.574    -1.323     (0)  
H(0)          0.000e+00
   H2              0.000e+00   0.000e+00   -46.212   -46.210     0.002     20.00
Mg            5.000e-03
   Mg+2            5.000e-03   3.155e-03    -2.301    -2.501    -0.200    -21.24
   MgOH+           6.842e-08   6.057e-08    -7.165    -7.218    -0.053     (0)  
   MgHCO3+         2.813e-10   2.490e-10    -9.551    -9.604    -0.053     (0)  
   MgCO3           6.742e-12   6.765e-12   -11.171   -11.170     0.002     25.00
O(0)          4.987e-02
   O2              2.493e-02   2.502e-02    -1.603    -1.602     0.002     35.00

------------------------------Saturation indices-------------------------------

	Phase               SI   log IAP   log K(293 K,   1 atm)

	Aragonite       -11.51    -19.82   -8.31  CaCO3
	Calcite         -11.37    -19.82   -8.45  CaCO3
	CO2(g)           -7.30     -8.70   -1.41  CO2
	Dolomite        -16.96    -33.93  -16.97  CaMg(CO3)2
	Fe(OH)3(a)       -0.38      4.51    4.89  Fe(OH)3
	Goethite          5.33      4.51   -0.82  FeOOH
	H2(g)           -43.12    -46.21   -3.09  H2
	H2O(g)           -1.63     -0.00    1.63  H2O
	Hematite         12.64      9.01   -3.62  Fe2O3
	O2(g)             1.25     -1.60   -2.85  O2
	Siderite        -18.50    -29.35  -10.86  FeCO3


------------------
End of simulation.
------------------

------------------------------------
Reading input data for simulation 5.
------------------------------------

	SELECTED_OUTPUT
		file  k.prn
		totals S(6) O(0) Ca Mg C(4) Fe
	KINETICS 1-2
	Calcite
		tol	1.e-7
		m0	2.9
		m	2.9
		parameters	8	0.67
	END
------------------
End of simulation.
------------------

------------------------------------
Reading input data for simulation 6.
------------------------------------

	PRINT
		reset true
		selected_output true
	USE surface 1
	USE equilibrium_phases 1
	USE exchange 1
	USE solution 0
	USE kinetics 1
	SAVE solution 1
	END
-----------------------------------------
Beginning of batch-reaction calculations.
-----------------------------------------

Reaction step 1.

Using solution 0.	5 mmol/l MgCl2 + 25 mmol/l O2
Using exchange 1.	Exchange assemblage after simulation 2.
Using surface 1.	
Using pure phase assemblage 1.	
Using kinetics 1.	

Kinetics 1.	

	Time step: 1 seconds

	Rate name       Delta Moles Total Moles   Reactant        Coefficient

	Calcite          -5.786e-08   2.900e+00   Calcite                   1

-------------------------------Phase assemblage--------------------------------

                                                      Moles in assemblage
Phase               SI  log IAP  log K(T, P)   Initial       Final       Delta

Goethite          3.00     2.18     -0.82    1.000e-01   1.000e-01   1.364e-08

------------------------------Surface composition------------------------------

Hfo           
	  7.967e-04  Surface charge, eq
	  1.456e-02  sigma, C/m**2
	  4.403e-02  psi, V
	 -1.743e+00  -F*psi/RT
	  1.750e-01  exp(-F*psi/RT)
	  6.000e+02  specific area, m**2/g
	  5.280e+03  m**2 for   8.800e+00 g


Hfo_w         
	  1.000e-02  moles
	                                   Mole                     Log
	Species               Moles    Fraction    Molality    Molality

	Hfo_wOMg+         4.077e-03       0.408   4.077e-03      -2.390
	Hfo_wOH           2.284e-03       0.228   2.284e-03      -2.641
	Hfo_wO-           2.004e-03       0.200   2.004e-03      -2.698
	Hfo_wCO3-         1.352e-03       0.135   1.352e-03      -2.869
	Hfo_wHCO3         2.078e-04       0.021   2.078e-04      -3.682
	Hfo_wOH2+         5.961e-05       0.006   5.961e-05      -4.225
	Hfo_wOCa+         1.579e-05       0.002   1.579e-05      -4.802
	Hfo_wOFeOH        3.890e-21       0.000   3.890e-21     -20.410
	Hfo_wOFe+         1.936e-21       0.000   1.936e-21     -20.713

-----------------------------Exchange composition------------------------------

X                1.250e-01 mol

	                               Equiv-    Equivalent      Log 
	Species             Moles      alents      Fraction     Gamma

	MgX2              5.629e-02   1.126e-01   9.006e-01    -0.206
	CaX2              6.210e-03   1.242e-02   9.937e-02    -0.210
	FeX2              4.665e-22   9.330e-22   7.464e-21    -0.205

-----------------------------Solution composition------------------------------

	Elements           Molality       Moles

	C                 8.229e-04   8.228e-04
	Ca                3.500e-04   3.500e-04
	Cl                1.000e-02   1.000e-02
	Fe                2.434e-11   2.434e-11
	Mg                5.028e-03   5.028e-03

----------------------------Description of solution----------------------------

                                       pH  =   8.116      Charge balance
                                       pe  =  13.425      Adjusted to redox equilibrium
       Specific Conductance (uS/cm, 20 oC) = 1071
                          Density (g/cm3)  =   0.99854
                        Activity of water  =   0.999
                           Ionic strength  =   1.608e-02
                       Mass of water (kg)  =   1.000e+00
                 Total alkalinity (eq/kg)  =   8.299e-04
                       Total CO2 (mol/kg)  =   8.229e-04
                      Temperature (deg C)  =  20.00
                  Electrical balance (eq)  =  -7.316e-05
 Percent error, 100*(Cat-|An|)/(Cat+|An|)  =  -0.34
                               Iterations  =  29
                                  Total H  = 1.110116e+02
                                  Total O  = 5.555773e+01

----------------------------Distribution of species----------------------------

                                            Log       Log         Log     mole V
   Species          Molality    Activity  Molality  Activity     Gamma   cm3/mol

   OH-             1.016e-06   8.932e-07    -5.993    -6.049    -0.056     -3.89
   H+              8.519e-09   7.651e-09    -8.070    -8.116    -0.047      0.00
   H2O             5.551e+01   9.993e-01     1.744    -0.000     0.000     18.05
C(-4)         0.000e+00
   CH4             0.000e+00   0.000e+00  -152.156  -152.155     0.002     33.00
C(4)          8.229e-04
   HCO3-           7.637e-04   6.769e-04    -3.117    -3.169    -0.052     24.35
   MgHCO3+         2.736e-05   2.414e-05    -4.563    -4.617    -0.054     (0)  
   CO2             1.244e-05   1.249e-05    -4.905    -4.904     0.002     25.18
   MgCO3           1.020e-05   1.023e-05    -4.992    -4.990     0.002     25.00
   CO3-2           6.036e-06   3.726e-06    -5.219    -5.429    -0.210     -4.52
   CaHCO3+         1.915e-06   1.698e-06    -5.718    -5.770    -0.052     20.11
   CaCO3           1.218e-06   1.223e-06    -5.914    -5.913     0.002     25.00
   FeCO3           3.153e-24   3.164e-24   -23.501   -23.500     0.002     (0)  
   FeHCO3+         2.717e-24   2.397e-24   -23.566   -23.620    -0.054     (0)  
Ca            3.500e-04
   Ca+2            3.469e-04   2.140e-04    -3.460    -3.670    -0.210    -18.00
   CaHCO3+         1.915e-06   1.698e-06    -5.718    -5.770    -0.052     20.11
   CaCO3           1.218e-06   1.223e-06    -5.914    -5.913     0.002     25.00
   CaOH+           5.259e-09   4.639e-09    -8.279    -8.334    -0.054     (0)  
Cl            1.000e-02
   Cl-             1.000e-02   8.795e-03    -2.000    -2.056    -0.056     17.95
   FeCl+2          2.541e-23   1.538e-23   -22.595   -22.813    -0.218     (0)  
   FeCl2+          8.050e-25   7.101e-25   -24.094   -24.149    -0.054     (0)  
   FeCl+           4.873e-25   4.298e-25   -24.312   -24.367    -0.054     (0)  
   FeCl3           6.222e-28   6.245e-28   -27.206   -27.204     0.002     (0)  
Fe(2)         6.430e-23
   Fe+2            5.681e-23   3.540e-23   -22.246   -22.451    -0.205    -22.07
   FeCO3           3.153e-24   3.164e-24   -23.501   -23.500     0.002     (0)  
   FeHCO3+         2.717e-24   2.397e-24   -23.566   -23.620    -0.054     (0)  
   FeOH+           1.134e-24   1.000e-24   -23.946   -24.000    -0.054     (0)  
   FeCl+           4.873e-25   4.298e-25   -24.312   -24.367    -0.054     (0)  
Fe(3)         2.434e-11
   Fe(OH)3         2.037e-11   2.045e-11   -10.691   -10.689     0.002     (0)  
   Fe(OH)4-        2.251e-12   1.986e-12   -11.648   -11.702    -0.054     (0)  
   Fe(OH)2+        1.720e-12   1.517e-12   -11.765   -11.819    -0.054     (0)  
   FeOH+2          7.025e-17   4.254e-17   -16.153   -16.371    -0.218     (0)  
   Fe+3            1.790e-22   6.804e-23   -21.747   -22.167    -0.420     (0)  
   FeCl+2          2.541e-23   1.538e-23   -22.595   -22.813    -0.218     (0)  
   FeCl2+          8.050e-25   7.101e-25   -24.094   -24.149    -0.054     (0)  
   FeCl3           6.222e-28   6.245e-28   -27.206   -27.204     0.002     (0)  
   Fe2(OH)2+4      4.471e-31   6.008e-32   -30.350   -31.221    -0.872     (0)  
   Fe3(OH)4+5      7.006e-40   0.000e+00   -39.155   -40.516    -1.362     (0)  
H(0)          0.000e+00
   H2              0.000e+00   0.000e+00   -46.212   -46.210     0.002     20.00
Mg            5.028e-03
   Mg+2            4.990e-03   3.108e-03    -2.302    -2.508    -0.206    -21.23
   MgHCO3+         2.736e-05   2.414e-05    -4.563    -4.617    -0.054     (0)  
   MgCO3           1.020e-05   1.023e-05    -4.992    -4.990     0.002     25.00
   MgOH+           1.056e-06   9.312e-07    -5.976    -6.031    -0.054     (0)  
O(0)          4.987e-02
   O2              2.493e-02   2.503e-02    -1.603    -1.602     0.002     35.00

------------------------------Saturation indices-------------------------------

	Phase               SI   log IAP   log K(293 K,   1 atm)

	Aragonite        -0.79     -9.10   -8.31  CaCO3
	Calcite          -0.65     -9.10   -8.45  CaCO3
	CH4(g)         -149.35   -152.15   -2.80  CH4
	CO2(g)           -3.50     -4.90   -1.41  CO2
	Dolomite         -0.06    -17.03  -16.97  CaMg(CO3)2
	Fe(OH)3(a)       -2.71      2.18    4.89  Fe(OH)3
	Goethite          3.00      2.18   -0.82  FeOOH
	H2(g)           -43.12    -46.21   -3.09  H2
	H2O(g)           -1.63     -0.00    1.63  H2O
	Hematite          7.98      4.36   -3.62  Fe2O3
	O2(g)             1.25     -1.60   -2.85  O2
	Siderite        -17.02    -27.88  -10.86  FeCO3


------------------
End of simulation.
------------------

------------------------------------
Reading input data for simulation 7.
------------------------------------

	USE surface 2
	USE equilibrium_phases 2
	MIX 2
		1  0.1
		2  0.9
	END
-----------------------------------------
Beginning of batch-reaction calculations.
-----------------------------------------

Reaction step 1.

WARNING: Maximum iterations exceeded, 100

WARNING: Numerical method failed with this set of convergence parameters.

WARNING: Trying smaller step size, pe step size 10, 5 ... 

WARNING: Maximum iterations exceeded, 200

WARNING: Numerical method failed with this set of convergence parameters.

WARNING: Trying reduced tolerance 1e-16 ...

WARNING: Maximum iterations exceeded, 200

WARNING: Numerical method failed with this set of convergence parameters.

WARNING: Trying increased tolerance 1e-14 ...

WARNING: Maximum iterations exceeded, 200

WARNING: Numerical method failed with this set of convergence parameters.

WARNING: Trying diagonal scaling ...

WARNING: Maximum iterations exceeded, 200

WARNING: Numerical method failed with this set of convergence parameters.

WARNING: Trying diagonal scaling and reduced tolerance 1e-16 ...

Using mix 2.	
Using surface 2.	
Using pure phase assemblage 2.	

Mixture 2.	

	  1.000e-01 Solution 1	Solution after simulation 6.                           
	  9.000e-01 Solution 2	Solution after simulation 1.                           

-------------------------------Phase assemblage--------------------------------

                                                      Moles in assemblage
Phase               SI  log IAP  log K(T, P)   Initial       Final       Delta

Goethite          3.00     2.18     -0.82    1.000e-01   1.000e-01   3.484e-09

------------------------------Surface composition------------------------------

Hfo           
	  7.284e-04  Surface charge, eq
	  1.331e-02  sigma, C/m**2
	  4.033e-02  psi, V
	 -1.597e+00  -F*psi/RT
	  2.026e-01  exp(-F*psi/RT)
	  6.000e+02  specific area, m**2/g
	  5.280e+03  m**2 for   8.800e+00 g


Hfo_w         
	  1.000e-02  moles
	                                   Mole                     Log
	Species               Moles    Fraction    Molality    Molality

	Hfo_wOMg+         4.437e-03       0.444   4.437e-03      -2.353
	Hfo_wCO3-         2.091e-03       0.209   2.091e-03      -2.680
	Hfo_wO-           1.667e-03       0.167   1.667e-03      -2.778
	Hfo_wOH           1.502e-03       0.150   1.502e-03      -2.823
	Hfo_wHCO3         2.542e-04       0.025   2.542e-04      -3.595
	Hfo_wOH2+         3.100e-05       0.003   3.100e-05      -4.509
	Hfo_wOCa+         1.809e-05       0.002   1.809e-05      -4.742
	Hfo_wOFeOH        4.548e-21       0.000   4.548e-21     -20.342
	Hfo_wOFe+         1.790e-21       0.000   1.790e-21     -20.747

-----------------------------Solution composition------------------------------

	Elements           Molality       Moles

	C                 2.254e-03   2.254e-03
	Ca                3.696e-04   3.696e-04
	Cl                1.000e-02   1.000e-02
	Fe                2.486e-11   2.486e-11
	Mg                5.019e-03   5.019e-03

----------------------------Description of solution----------------------------

                                       pH  =   8.282      Charge balance
                                       pe  =  13.009      Adjusted to redox equilibrium
       Specific Conductance (uS/cm, 20 oC) = 1115
                          Density (g/cm3)  =   0.99866
                        Activity of water  =   1.000
                           Ionic strength  =   1.666e-02
                       Mass of water (kg)  =   1.000e+00
                 Total alkalinity (eq/kg)  =   2.303e-03
                       Total CO2 (mol/kg)  =   2.254e-03
                      Temperature (deg C)  =  20.00
                  Electrical balance (eq)  =  -1.526e-03
 Percent error, 100*(Cat-|An|)/(Cat+|An|)  =  -6.71
                               Iterations  =  14
                                  Total H  = 1.110144e+02
                                  Total O  = 5.551783e+01

----------------------------Distribution of species----------------------------

                                            Log       Log         Log     mole V
   Species          Molality    Activity  Molality  Activity     Gamma   cm3/mol

   OH-             1.491e-06   1.308e-06    -5.827    -5.883    -0.057     -3.89
   H+              5.828e-09   5.226e-09    -8.235    -8.282    -0.047      0.00
   H2O             5.551e+01   9.997e-01     1.744    -0.000     0.000     18.05
C(-4)         0.000e+00
   CH4             0.000e+00   0.000e+00  -149.887  -149.885     0.002     33.00
C(4)          2.254e-03
   HCO3-           2.084e-03   1.844e-03    -2.681    -2.734    -0.053     24.36
   MgHCO3+         7.292e-05   6.420e-05    -4.137    -4.192    -0.055     (0)  
   MgCO3           3.969e-05   3.985e-05    -4.401    -4.400     0.002     25.00
   CO3-2           2.424e-05   1.486e-05    -4.615    -4.828    -0.213     -4.51
   CO2             2.314e-05   2.322e-05    -4.636    -4.634     0.002     25.18
   CaHCO3+         5.375e-06   4.756e-06    -5.270    -5.323    -0.053     20.11
   CaCO3           4.996e-06   5.015e-06    -5.301    -5.300     0.002     25.00
   FeCO3           1.042e-23   1.046e-23   -22.982   -22.980     0.002     (0)  
   FeHCO3+         6.149e-24   5.414e-24   -23.211   -23.266    -0.055     (0)  
Ca            3.696e-04
   Ca+2            3.592e-04   2.201e-04    -3.445    -3.657    -0.213    -17.99
   CaHCO3+         5.375e-06   4.756e-06    -5.270    -5.323    -0.053     20.11
   CaCO3           4.996e-06   5.015e-06    -5.301    -5.300     0.002     25.00
   CaOH+           7.934e-09   6.986e-09    -8.101    -8.156    -0.055     (0)  
Cl            1.000e-02
   Cl-             1.000e-02   8.778e-03    -2.000    -2.057    -0.057     17.95
   FeCl+2          8.137e-24   4.890e-24   -23.090   -23.311    -0.221     (0)  
   FeCl+           4.041e-25   3.558e-25   -24.394   -24.449    -0.055     (0)  
   FeCl2+          2.559e-25   2.253e-25   -24.592   -24.647    -0.055     (0)  
   FeCl3           1.970e-28   1.977e-28   -27.706   -27.704     0.002     (0)  
Fe(2)         6.579e-23
   Fe+2            4.743e-23   2.936e-23   -22.324   -22.532    -0.208    -22.06
   FeCO3           1.042e-23   1.046e-23   -22.982   -22.980     0.002     (0)  
   FeHCO3+         6.149e-24   5.414e-24   -23.211   -23.266    -0.055     (0)  
   FeOH+           1.379e-24   1.215e-24   -23.860   -23.916    -0.055     (0)  
   FeCl+           4.041e-25   3.558e-25   -24.394   -24.449    -0.055     (0)  
Fe(3)         2.486e-11
   Fe(OH)3         2.038e-11   2.046e-11   -10.691   -10.689     0.002     (0)  
   Fe(OH)4-        3.304e-12   2.909e-12   -11.481   -11.536    -0.055     (0)  
   Fe(OH)2+        1.177e-12   1.036e-12   -11.929   -11.985    -0.055     (0)  
   FeOH+2          3.302e-17   1.984e-17   -16.481   -16.702    -0.221     (0)  
   Fe+3            5.774e-23   2.167e-23   -22.239   -22.664    -0.426     (0)  
   FeCl+2          8.137e-24   4.890e-24   -23.090   -23.311    -0.221     (0)  
   FeCl2+          2.559e-25   2.253e-25   -24.592   -24.647    -0.055     (0)  
   FeCl3           1.970e-28   1.977e-28   -27.706   -27.704     0.002     (0)  
   Fe2(OH)2+4      1.002e-31   1.307e-32   -30.999   -31.884    -0.885     (0)  
   Fe3(OH)4+5      1.091e-40   0.000e+00   -39.962   -41.344    -1.382     (0)  
H(0)          0.000e+00
   H2              0.000e+00   0.000e+00   -45.712   -45.710     0.002     20.00
Mg            5.019e-03
   Mg+2            4.905e-03   3.035e-03    -2.309    -2.518    -0.208    -21.22
   MgHCO3+         7.292e-05   6.420e-05    -4.137    -4.192    -0.055     (0)  
   MgCO3           3.969e-05   3.985e-05    -4.401    -4.400     0.002     25.00
   MgOH+           1.512e-06   1.331e-06    -5.820    -5.876    -0.055     (0)  
O(0)          4.987e-03
   O2              2.493e-03   2.503e-03    -2.603    -2.602     0.002     35.00

------------------------------Saturation indices-------------------------------

	Phase               SI   log IAP   log K(293 K,   1 atm)

	Aragonite        -0.18     -8.49   -8.31  CaCO3
	Calcite          -0.03     -8.49   -8.45  CaCO3
	CH4(g)         -147.08   -149.88   -2.80  CH4
	CO2(g)           -3.23     -4.63   -1.41  CO2
	Dolomite          1.14    -15.83  -16.97  CaMg(CO3)2
	Fe(OH)3(a)       -2.71      2.18    4.89  Fe(OH)3
	Goethite          3.00      2.18   -0.82  FeOOH
	H2(g)           -42.62    -45.71   -3.09  H2
	H2O(g)           -1.63     -0.00    1.63  H2O
	Hematite          7.98      4.36   -3.62  Fe2O3
	O2(g)             0.25     -2.60   -2.85  O2
	Siderite        -16.50    -27.36  -10.86  FeCO3


------------------
End of simulation.
------------------

------------------------------------
Reading input data for simulation 8.
------------------------------------

-----------
End of run.
-----------

