   Input file: transport
  Output file: transport.out
Database file: ../database/phreeqc.dat

------------------
Reading data base.
------------------

	SOLUTION_MASTER_SPECIES
	SOLUTION_SPECIES
	PHASES
	EXCHANGE_MASTER_SPECIES
	EXCHANGE_SPECIES
	SURFACE_MASTER_SPECIES
	SURFACE_SPECIES
	RATES
	END
------------------------------------
Reading input data for simulation 1.
------------------------------------

	DATABASE ../database/phreeqc.dat
	knobs
		logfile
	PRINT
		status false
	SOLUTION 0
		ph	3.3
		temp	25
		units mmol/l
		Ca	11.6
		Mg	15.8
		Na	9.4
		K	0.2
		Fe	52.4
		Mn	1.34
		Al	10.5
		Cu	2.4
		Zn	0.33
		S(6)	100 	charge
		Cl	9.5
		C(4)	0.1	CO2(g)  -3.5
	SOLUTION 1-5
		ph	7.19
		temp	25
		units mmol/l
		O(0)	0.22
		Ca	1.2	charge
		Mg	0.37
		Na	0.96
		K	0.03
		Fe	3.5e-7	mol/l
		Mn	1.0e-7	mol/l
		Al	1.8e-6  mol/l
		Cu	1.5e-7	mol/l
		Zn	2.5e-7	mol/l
		S(6)	0.7
		Cl	0.48
		Alkalinity	2.3
	SURFACE 1-5
		SurfOH	0.15	600.	65.
	PURE_PHASES 1-5
		MnO2		0.0	0.045
		Fe(OH)3		0.0	0.73
		Calcite		0.0	0.14
		Gypsum 		0.0	0.0
		Al(OH)3(a)	0.0	0.0
		AlOHSO4		0.0	0.0
	USE PURE_PHASES none
	USE SURFACE none
	ADVECTION
		cells		5
		shifts		25
		print_frequency	5
	SURFACE_MASTER_SPECIES
		Surf	SurfOH
	SURFACE_SPECIES
		SurfOH = SurfOH
		log_k	0.0
		SurfOH  + H+ = SurfOH2+
		log_k	7.29
		SurfOH = SurfO- + H+
		log_k	-8.93
		SurfOH + Cu+2 = SurfOCu+ + H+
		log_k	0.6
		SurfOH + Zn+2 = SurfOZn+ + H+
		log_k	-1.99
		SurfOH + Mn+2 = SurfOMn+ + H+
		log_k	-2.6
	PHASES
		Fe(OH)3
		Fe(OH)3 + 3 H+ = Fe+3 + 3 H2O                                                 
		log_k	4.891
		MnO2
		MnO2 + 4 H+ + 2 e- = Mn+2 + 2 H2O                                          
		log_k		41.380
		delta_h	-65.110 kcal
		Al(OH)3(a)
		Al(OH)3 + 3H+ = Al+3 + 3H2O 
		log_k		10.8
		delta_h	-26.5 kcal
		AlOHSO4
		AlOHSO4 + H+ = Al+3 + SO4-2 + H2O 
		log_k	-2.2
	END
-------------------------------------------
Beginning of initial solution calculations.
-------------------------------------------

Initial solution 0.	

-----------------------------Solution composition------------------------------

	Elements           Molality       Moles

	Al                1.065e-02   1.065e-02
	C(4)              1.047e-05   1.047e-05  Equilibrium with CO2(g)
	Ca                1.177e-02   1.177e-02
	Cl                9.640e-03   9.640e-03
	Cu                2.435e-03   2.435e-03
	Fe                5.317e-02   5.317e-02
	K                 2.029e-04   2.029e-04
	Mg                1.603e-02   1.603e-02
	Mn                1.360e-03   1.360e-03
	Na                9.538e-03   9.538e-03
	S(6)              1.020e-01   1.020e-01  Charge balance
	Zn                3.348e-04   3.348e-04

----------------------------Description of solution----------------------------

                                       pH  =   3.300    
                                       pe  =   4.000    
       Specific Conductance (uS/cm, 25 oC) = 9114
                          Density (g/cm3)  =   1.01159
                        Activity of water  =   0.997
                           Ionic strength  =   2.110e-01
                       Mass of water (kg)  =   1.000e+00
                 Total alkalinity (eq/kg)  =  -1.677e-03
                       Total CO2 (mol/kg)  =   1.047e-05
                      Temperature (deg C)  =  25.00
                  Electrical balance (eq)  =   2.827e-16
 Percent error, 100*(Cat-|An|)/(Cat+|An|)  =   0.00
                               Iterations  =  10
                                  Total H  = 1.110141e+02
                                  Total O  = 5.591407e+01

----------------------------Distribution of species----------------------------

                                               Log       Log       Log    mole V
   Species          Molality    Activity  Molality  Activity     Gamma   cm3/mol

   H+              6.300e-04   5.012e-04    -3.201    -3.300    -0.099      0.00
   OH-             2.838e-11   1.994e-11   -10.547   -10.700    -0.153     -3.34
   H2O             5.551e+01   9.972e-01     1.744    -0.001     0.000     18.07
Al            1.065e-02
   AlSO4+          6.752e-03   5.026e-03    -2.171    -2.299    -0.128     (0)  
   Al(SO4)2-       3.010e-03   2.241e-03    -2.521    -2.650    -0.128     (0)  
   Al+3            8.835e-04   1.127e-04    -3.054    -3.948    -0.894    -40.73
   AlOH+2          7.259e-06   2.228e-06    -5.139    -5.652    -0.513    -26.11
   AlHSO4+2        7.277e-07   2.233e-07    -6.138    -6.651    -0.513     (0)  
   Al(OH)2+        4.668e-08   3.474e-08    -7.331    -7.459    -0.128     (0)  
   Al(OH)3         9.702e-12   1.019e-11   -11.013   -10.992     0.021     (0)  
   Al(OH)4-        5.132e-14   3.819e-14   -13.290   -13.418    -0.128     (0)  
C(4)          1.047e-05
   CO2             1.044e-05   1.096e-05    -4.981    -4.960     0.021     30.26
   HCO3-           1.306e-08   9.699e-09    -7.884    -8.013    -0.129     25.45
   FeHCO3+         1.256e-08   9.350e-09    -7.901    -8.029    -0.128     (0)  
   MgHCO3+         4.008e-10   2.983e-10    -9.397    -9.525    -0.128      5.87
   CaHCO3+         3.528e-10   2.621e-10    -9.452    -9.581    -0.129     10.07
   MnHCO3+         2.856e-10   2.126e-10    -9.544    -9.672    -0.128     (0)  
   ZnHCO3+         7.018e-11   5.223e-11   -10.154   -10.282    -0.128     (0)  
   NaHCO3          6.099e-11   6.403e-11   -10.215   -10.194     0.021     29.13
   FeCO3           1.999e-13   2.099e-13   -12.699   -12.678     0.021     (0)  
   MnCO3           1.689e-14   1.773e-14   -13.772   -13.751     0.021     (0)  
   ZnCO3           7.379e-15   7.746e-15   -14.132   -14.111     0.021     (0)  
   CaCO3           3.076e-15   3.229e-15   -14.512   -14.491     0.021    -14.60
   CO3-2           2.980e-15   9.075e-16   -14.526   -15.042    -0.516     -2.31
   MgCO3           2.169e-15   2.277e-15   -14.664   -14.643     0.021    -17.09
   NaCO3-          1.499e-16   1.116e-16   -15.824   -15.952    -0.128     -1.40
   Zn(CO3)2-2      4.897e-25   1.503e-25   -24.310   -24.823    -0.513     (0)  
Ca            1.177e-02
   Ca+2            6.688e-03   2.118e-03    -2.175    -2.674    -0.499    -17.33
   CaSO4           5.059e-03   5.311e-03    -2.296    -2.275     0.021      7.50
   CaHSO4+         2.351e-05   1.750e-05    -4.629    -4.757    -0.128     (0)  
   CaHCO3+         3.528e-10   2.621e-10    -9.452    -9.581    -0.129     10.07
   CaOH+           9.398e-13   6.995e-13   -12.027   -12.155    -0.128     (0)  
   CaCO3           3.076e-15   3.229e-15   -14.512   -14.491     0.021    -14.60
Cl            9.640e-03
   Cl-             9.509e-03   6.730e-03    -2.022    -2.172    -0.150     18.45
   FeCl+           1.203e-04   8.956e-05    -3.920    -4.048    -0.128     (0)  
   MnCl+           9.059e-06   6.743e-06    -5.043    -5.171    -0.128      6.66
   ZnCl+           1.041e-06   7.749e-07    -5.983    -6.111    -0.128     -1.41
   MnCl2           1.887e-08   1.981e-08    -7.724    -7.703     0.021     (0)  
   ZnCl2           5.202e-09   5.461e-09    -8.284    -8.263     0.021     24.06
   ZnCl3-          5.540e-11   4.123e-11   -10.257   -10.385    -0.128     54.10
   MnCl3-          4.933e-11   3.672e-11   -10.307   -10.435    -0.128     (0)  
   FeCl+2          6.097e-12   1.871e-12   -11.215   -11.728    -0.513     (0)  
   ZnCl4-2         4.531e-13   1.391e-13   -12.344   -12.857    -0.513     89.23
   FeCl2+          7.557e-14   5.625e-14   -13.122   -13.250    -0.128     (0)  
   FeCl3           3.606e-17   3.786e-17   -16.443   -16.422     0.021     (0)  
Cu(1)         3.192e-05
   Cu+             3.192e-05   2.158e-05    -4.496    -4.666    -0.170     (0)  
Cu(2)         2.403e-03
   Cu+2            1.276e-03   4.112e-04    -2.894    -3.386    -0.492    -22.98
   CuSO4           1.127e-03   1.184e-03    -2.948    -2.927     0.021     (0)  
   CuOH+           1.145e-08   8.181e-09    -7.941    -8.087    -0.146     (0)  
   Cu(OH)2         3.239e-11   3.401e-11   -10.490   -10.468     0.021     (0)  
   Cu(OH)3-        5.478e-21   4.077e-21   -20.261   -20.390    -0.128     (0)  
   Cu(OH)4-2       5.274e-30   1.618e-30   -29.278   -29.791    -0.513     (0)  
Fe(2)         5.317e-02
   Fe+2            2.992e-02   9.641e-03    -1.524    -2.016    -0.492    -20.58
   FeSO4           2.302e-02   2.417e-02    -1.638    -1.617     0.021     (0)  
   FeCl+           1.203e-04   8.956e-05    -3.920    -4.048    -0.128     (0)  
   FeHSO4+         1.070e-04   7.963e-05    -3.971    -4.099    -0.128     (0)  
   FeHCO3+         1.256e-08   9.350e-09    -7.901    -8.029    -0.128     (0)  
   FeOH+           8.150e-09   6.066e-09    -8.089    -8.217    -0.128     (0)  
   FeCO3           1.999e-13   2.099e-13   -12.699   -12.678     0.021     (0)  
Fe(3)         3.077e-09
   FeSO4+          1.912e-09   1.423e-09    -8.718    -8.847    -0.128     (0)  
   Fe(SO4)2-       5.898e-10   4.390e-10    -9.229    -9.358    -0.128     (0)  
   FeOH+2          3.854e-10   1.183e-10    -9.414    -9.927    -0.513     (0)  
   Fe(OH)2+        1.047e-10   7.792e-11    -9.980   -10.108    -0.128     (0)  
   Fe+3            7.216e-11   9.207e-12   -10.142   -11.036    -0.894     (0)  
   FeHSO4+2        6.224e-12   1.910e-12   -11.206   -11.719    -0.513     (0)  
   FeCl+2          6.097e-12   1.871e-12   -11.215   -11.728    -0.513     (0)  
   FeCl2+          7.557e-14   5.625e-14   -13.122   -13.250    -0.128     (0)  
   Fe(OH)3         1.903e-14   1.997e-14   -13.721   -13.700     0.021     (0)  
   Fe2(OH)2+4      4.244e-17   3.765e-19   -16.372   -18.424    -2.052     (0)  
   FeCl3           3.606e-17   3.786e-17   -16.443   -16.422     0.021     (0)  
   Fe(OH)4-        4.869e-20   3.624e-20   -19.313   -19.441    -0.128     (0)  
   Fe3(OH)4+5      9.855e-24   6.130e-27   -23.006   -26.213    -3.206     (0)  
H(0)          3.388e-18
   H2              1.694e-18   1.778e-18   -17.771   -17.750     0.021     28.61
K             2.029e-04
   K+              1.855e-04   1.313e-04    -3.732    -3.882    -0.150      9.35
   KSO4-           1.747e-05   1.300e-05    -4.758    -4.886    -0.128     (0)  
   KOH             8.626e-16   9.055e-16   -15.064   -15.043     0.021     (0)  
Mg            1.603e-02
   MgSO4           8.276e-03   8.688e-03    -2.082    -2.061     0.021      5.84
   Mg+2            7.756e-03   2.629e-03    -2.110    -2.580    -0.470    -20.38
   MgHCO3+         4.008e-10   2.983e-10    -9.397    -9.525    -0.128      5.87
   MgOH+           2.551e-11   1.899e-11   -10.593   -10.721    -0.128     (0)  
   MgCO3           2.169e-15   2.277e-15   -14.664   -14.643     0.021    -17.09
Mn(2)         1.360e-03
   Mn+2            7.632e-04   2.460e-04    -3.117    -3.609    -0.492    -15.47
   MnSO4           5.874e-04   6.166e-04    -3.231    -3.210     0.021      4.99
   MnCl+           9.059e-06   6.743e-06    -5.043    -5.171    -0.128      6.66
   MnCl2           1.887e-08   1.981e-08    -7.724    -7.703     0.021     (0)  
   MnHCO3+         2.856e-10   2.126e-10    -9.544    -9.672    -0.128     (0)  
   MnCl3-          4.933e-11   3.672e-11   -10.307   -10.435    -0.128     (0)  
   MnOH+           1.690e-11   1.258e-11   -10.772   -10.900    -0.128     (0)  
   MnCO3           1.689e-14   1.773e-14   -13.772   -13.751     0.021     (0)  
Mn(3)         1.084e-24
   Mn+3            1.084e-24   7.601e-26   -23.965   -25.119    -1.154     (0)  
Na            9.538e-03
   Na+             8.911e-03   6.602e-03    -2.050    -2.180    -0.130     -0.87
   NaSO4-          6.267e-04   4.665e-04    -3.203    -3.331    -0.128     17.82
   NaHCO3          6.099e-11   6.403e-11   -10.215   -10.194     0.021     29.13
   NaCO3-          1.499e-16   1.116e-16   -15.824   -15.952    -0.128     -1.40
   NaOH            1.254e-23   1.316e-23   -22.902   -22.881     0.021     (0)  
O(0)          0.000e+00
   O2              0.000e+00   0.000e+00   -56.904   -56.882     0.021     30.40
S(6)          1.020e-01
   SO4-2           4.917e-02   1.410e-02    -1.308    -1.851    -0.543     16.58
   FeSO4           2.302e-02   2.417e-02    -1.638    -1.617     0.021     (0)  
   MgSO4           8.276e-03   8.688e-03    -2.082    -2.061     0.021      5.84
   AlSO4+          6.752e-03   5.026e-03    -2.171    -2.299    -0.128     (0)  
   CaSO4           5.059e-03   5.311e-03    -2.296    -2.275     0.021      7.50
   Al(SO4)2-       3.010e-03   2.241e-03    -2.521    -2.650    -0.128     (0)  
   CuSO4           1.127e-03   1.184e-03    -2.948    -2.927     0.021     (0)  
   HSO4-           9.230e-04   6.870e-04    -3.035    -3.163    -0.128     35.56
   NaSO4-          6.267e-04   4.665e-04    -3.203    -3.331    -0.128     17.82
   MnSO4           5.874e-04   6.166e-04    -3.231    -3.210     0.021      4.99
   ZnSO4           1.347e-04   1.414e-04    -3.871    -3.850     0.021     (0)  
   FeHSO4+         1.070e-04   7.963e-05    -3.971    -4.099    -0.128     (0)  
   Zn(SO4)2-2      5.279e-05   1.620e-05    -4.277    -4.790    -0.513     (0)  
   CaHSO4+         2.351e-05   1.750e-05    -4.629    -4.757    -0.128     (0)  
   KSO4-           1.747e-05   1.300e-05    -4.758    -4.886    -0.128     (0)  
   AlHSO4+2        7.277e-07   2.233e-07    -6.138    -6.651    -0.513     (0)  
   FeSO4+          1.912e-09   1.423e-09    -8.718    -8.847    -0.128     (0)  
   Fe(SO4)2-       5.898e-10   4.390e-10    -9.229    -9.358    -0.128     (0)  
   FeHSO4+2        6.224e-12   1.910e-12   -11.206   -11.719    -0.513     (0)  
Zn            3.348e-04
   Zn+2            1.463e-04   4.278e-05    -3.835    -4.369    -0.534    -22.68
   ZnSO4           1.347e-04   1.414e-04    -3.871    -3.850     0.021     (0)  
   Zn(SO4)2-2      5.279e-05   1.620e-05    -4.277    -4.790    -0.513     (0)  
   ZnCl+           1.041e-06   7.749e-07    -5.983    -6.111    -0.128     -1.41
   ZnCl2           5.202e-09   5.461e-09    -8.284    -8.263     0.021     24.06
   ZnOH+           1.254e-10   9.333e-11    -9.902   -10.030    -0.128     (0)  
   ZnHCO3+         7.018e-11   5.223e-11   -10.154   -10.282    -0.128     (0)  
   ZnCl3-          5.540e-11   4.123e-11   -10.257   -10.385    -0.128     54.10
   ZnCl4-2         4.531e-13   1.391e-13   -12.344   -12.857    -0.513     89.23
   ZnCO3           7.379e-15   7.746e-15   -14.132   -14.111     0.021     (0)  
   Zn(OH)2         2.031e-15   2.132e-15   -14.692   -14.671     0.021     (0)  
   Zn(OH)3-        1.802e-23   1.341e-23   -22.744   -22.872    -0.128     (0)  
   Zn(CO3)2-2      4.897e-25   1.503e-25   -24.310   -24.823    -0.513     (0)  
   Zn(OH)4-2       1.378e-32   4.230e-33   -31.861   -32.374    -0.513     (0)  

------------------------------Saturation indices-------------------------------

	Phase               SI   log IAP   log K(298 K,   1 atm)

	Al(OH)3(a)       -4.85      5.95   10.80  Al(OH)3
	AlOHSO4          -0.30     -2.50   -2.20  AlOHSO4
	Alunite           1.77      0.37   -1.40  KAl3(SO4)2(OH)6
	Anhydrite        -0.30     -4.52   -4.22  CaSO4
	Aragonite        -9.38    -17.72   -8.34  CaCO3
	Calcite          -9.24    -17.72   -8.48  CaCO3
	CO2(g)           -3.50     -4.96   -1.46  CO2	 Pressure   0.0 atm, phi 1.000.
	Dolomite        -18.25    -35.34  -17.09  CaMg(CO3)2
	Fe(OH)3          -6.03     -1.14    4.89  Fe(OH)3
	Fe(OH)3(a)       -6.03     -1.14    4.89  Fe(OH)3
	Gibbsite         -2.16      5.95    8.11  Al(OH)3
	Goethite         -0.14     -1.14   -1.00  FeOOH
	Gypsum            0.05     -4.53   -4.58  CaSO4:2H2O
	H2(g)           -14.65    -17.75   -3.10  H2
	H2O(g)           -1.50     -0.00    1.50  H2O
	Halite           -5.93     -4.35    1.58  NaCl
	Hausmannite     -37.46     23.57   61.03  Mn3O4
	Hematite          1.73     -2.28   -4.01  Fe2O3
	Jarosite-K      -11.69    -20.90   -9.21  KFe3(SO4)2(OH)6
	Manganite       -15.05     10.29   25.34  MnOOH
	Melanterite      -1.67     -3.88   -2.21  FeSO4:7H2O
	MnO2            -23.79     17.59   41.38  MnO2
	O2(g)           -53.99    -56.88   -2.89  O2
	Pyrochroite     -12.21      2.99   15.20  Mn(OH)2
	Pyrolusite      -23.79     17.59   41.38  MnO2:H2O
	Rhodochrosite    -7.52    -18.65  -11.13  MnCO3
	Siderite         -6.17    -17.06  -10.89  FeCO3
	Smithsonite      -9.41    -19.41  -10.00  ZnCO3
	Zn(OH)2(e)       -9.27      2.23   11.50  Zn(OH)2


Initial solution 1.	

-----------------------------Solution composition------------------------------

	Elements           Molality       Moles

	Al                1.801e-06   1.801e-06
	Alkalinity        2.301e-03   2.301e-03
	Ca                1.222e-03   1.222e-03  Charge balance
	Cl                4.801e-04   4.801e-04
	Cu                1.500e-07   1.500e-07
	Fe                3.501e-07   3.501e-07
	K                 3.001e-05   3.001e-05
	Mg                3.701e-04   3.701e-04
	Mn                1.000e-07   1.000e-07
	Na                9.603e-04   9.603e-04
	O(0)              2.201e-04   2.201e-04
	S(6)              7.002e-04   7.002e-04
	Zn                2.501e-07   2.501e-07

----------------------------Description of solution----------------------------

                                       pH  =   7.190    
                                       pe  =   4.000    
       Specific Conductance (uS/cm, 25 oC) = 413
                          Density (g/cm3)  =   0.99731
                        Activity of water  =   1.000
                           Ionic strength  =   6.038e-03
                       Mass of water (kg)  =   1.000e+00
                    Total carbon (mol/kg)  =   2.590e-03
                       Total CO2 (mol/kg)  =   2.590e-03
                      Temperature (deg C)  =  25.00
                  Electrical balance (eq)  =   1.864e-11
 Percent error, 100*(Cat-|An|)/(Cat+|An|)  =   0.00
                               Iterations  =   9
                                  Total H  = 1.110147e+02
                                  Total O  = 5.551671e+01

---------------------------------Redox couples---------------------------------

	Redox couple             pe  Eh (volts)

	O(-2)/O(0)          13.3406      0.7892

----------------------------Distribution of species----------------------------

                                               Log       Log       Log    mole V
   Species          Molality    Activity  Molality  Activity     Gamma   cm3/mol

   OH-             1.688e-07   1.552e-07    -6.773    -6.809    -0.036     -4.03
   H+              6.954e-08   6.457e-08    -7.158    -7.190    -0.032      0.00
   H2O             5.551e+01   9.999e-01     1.744    -0.000     0.000     18.07
Al            1.801e-06
   Al(OH)4-        1.720e-06   1.584e-06    -5.764    -5.800    -0.036     (0)  
   Al(OH)3         5.419e-08   5.427e-08    -7.266    -7.265     0.001     (0)  
   Al(OH)2+        2.583e-08   2.378e-08    -7.588    -7.624    -0.036     (0)  
   AlOH+2          2.726e-10   1.959e-10    -9.564    -9.708    -0.143    -27.52
   Al+3            2.484e-12   1.274e-12   -11.605   -11.895    -0.290    -43.91
   AlSO4+          1.925e-12   1.772e-12   -11.716   -11.752    -0.036     (0)  
   Al(SO4)2-       2.678e-14   2.466e-14   -13.572   -13.608    -0.036     (0)  
   AlHSO4+2        1.411e-20   1.015e-20   -19.850   -19.994    -0.143     (0)  
C(4)          2.590e-03
   HCO3-           2.252e-03   2.078e-03    -2.647    -2.682    -0.035     24.64
   CO2             3.013e-04   3.017e-04    -3.521    -3.520     0.001     30.26
   CaHCO3+         2.359e-05   2.177e-05    -4.627    -4.662    -0.035      9.72
   MgHCO3+         6.498e-06   5.983e-06    -5.187    -5.223    -0.036      5.52
   CO3-2           2.081e-06   1.510e-06    -5.682    -5.821    -0.139     -3.81
   CaCO3           2.079e-06   2.082e-06    -5.682    -5.682     0.001    -14.60
   NaHCO3          1.829e-06   1.832e-06    -5.738    -5.737     0.001     29.13
   MgCO3           3.539e-07   3.544e-07    -6.451    -6.450     0.001    -17.09
   ZnCO3           3.570e-08   3.575e-08    -7.447    -7.447     0.001     (0)  
   ZnHCO3+         3.373e-08   3.105e-08    -7.472    -7.508    -0.036     (0)  
   NaCO3-          2.690e-08   2.477e-08    -7.570    -7.606    -0.036     -2.80
   FeHCO3+         2.438e-08   2.245e-08    -7.613    -7.649    -0.036     (0)  
   MnHCO3+         1.134e-08   1.045e-08    -7.945    -7.981    -0.036     (0)  
   MnCO3           6.753e-09   6.762e-09    -8.171    -8.170     0.001     (0)  
   FeCO3           3.907e-09   3.912e-09    -8.408    -8.408     0.001     (0)  
   Zn(CO3)2-2      1.605e-09   1.154e-09    -8.794    -8.938    -0.143     (0)  
Ca            1.222e-03
   Ca+2            1.132e-03   8.209e-04    -2.946    -3.086    -0.140    -18.07
   CaSO4           6.414e-05   6.423e-05    -4.193    -4.192     0.001      7.50
   CaHCO3+         2.359e-05   2.177e-05    -4.627    -4.662    -0.035      9.72
   CaCO3           2.079e-06   2.082e-06    -5.682    -5.682     0.001    -14.60
   CaOH+           2.291e-09   2.110e-09    -8.640    -8.676    -0.036     (0)  
   CaHSO4+         2.960e-11   2.726e-11   -10.529   -10.565    -0.036     (0)  
Cl            4.801e-04
   Cl-             4.801e-04   4.416e-04    -3.319    -3.355    -0.036     18.11
   ZnCl+           1.532e-10   1.411e-10    -9.815    -9.851    -0.036     -1.76
   MnCl+           1.102e-10   1.015e-10    -9.958    -9.994    -0.036      6.30
   FeCl+           7.152e-11   6.586e-11   -10.146   -10.181    -0.036     (0)  
   ZnCl2           6.515e-14   6.524e-14   -13.186   -13.185     0.001     24.06
   MnCl2           1.953e-14   1.956e-14   -13.709   -13.709     0.001     (0)  
   ZnCl3-          3.511e-17   3.233e-17   -16.455   -16.490    -0.036     53.75
   MnCl3-          2.584e-18   2.379e-18   -17.588   -17.624    -0.036     (0)  
   FeCl+2          1.914e-18   1.376e-18   -17.718   -17.861    -0.143     (0)  
   ZnCl4-2         9.956e-21   7.156e-21   -20.002   -20.145    -0.143     87.82
   FeCl2+          2.948e-21   2.714e-21   -20.530   -20.566    -0.036     (0)  
   FeCl3           1.197e-25   1.199e-25   -24.922   -24.921     0.001     (0)  
Cu(1)         1.282e-09
   Cu+             1.282e-09   1.177e-09    -8.892    -8.929    -0.037     (0)  
Cu(2)         1.488e-07
   Cu(OH)2         1.122e-07   1.124e-07    -6.950    -6.949     0.001     (0)  
   Cu+2            3.077e-08   2.242e-08    -7.512    -7.649    -0.137    -24.39
   CuOH+           3.772e-09   3.473e-09    -8.423    -8.459    -0.036     (0)  
   CuSO4           2.012e-09   2.014e-09    -8.696    -8.696     0.001     (0)  
   Cu(OH)3-        1.139e-13   1.048e-13   -12.944   -12.979    -0.036     (0)  
   Cu(OH)4-2       4.507e-19   3.240e-19   -18.346   -18.489    -0.143     (0)  
Fe(2)         1.856e-07
   Fe+2            1.483e-07   1.080e-07    -6.829    -6.966    -0.137    -21.99
   FeHCO3+         2.438e-08   2.245e-08    -7.613    -7.649    -0.036     (0)  
   FeSO4           8.440e-09   8.452e-09    -8.074    -8.073     0.001     (0)  
   FeCO3           3.907e-09   3.912e-09    -8.408    -8.408     0.001     (0)  
   FeOH+           5.746e-10   5.290e-10    -9.241    -9.277    -0.036     (0)  
   FeCl+           7.152e-11   6.586e-11   -10.146   -10.181    -0.036     (0)  
   FeHSO4+         3.896e-15   3.587e-15   -14.409   -14.445    -0.036     (0)  
Fe(3)         1.645e-07
   Fe(OH)3         1.054e-07   1.055e-07    -6.977    -6.977     0.001     (0)  
   Fe(OH)2+        5.745e-08   5.290e-08    -7.241    -7.277    -0.036     (0)  
   Fe(OH)4-        1.619e-09   1.491e-09    -8.791    -8.827    -0.036     (0)  
   FeOH+2          1.435e-11   1.032e-11   -10.843   -10.987    -0.143     (0)  
   FeSO4+          5.405e-16   4.977e-16   -15.267   -15.303    -0.036     (0)  
   Fe+3            2.012e-16   1.032e-16   -15.696   -15.986    -0.290     (0)  
   Fe(SO4)2-       5.203e-18   4.790e-18   -17.284   -17.320    -0.036     (0)  
   FeCl+2          1.914e-18   1.376e-18   -17.718   -17.861    -0.143     (0)  
   Fe2(OH)2+4      1.073e-20   2.864e-21   -19.969   -20.543    -0.574     (0)  
   FeCl2+          2.948e-21   2.714e-21   -20.530   -20.566    -0.036     (0)  
   FeHSO4+2        1.197e-22   8.605e-23   -21.922   -22.065    -0.143     (0)  
   Fe3(OH)4+5      2.493e-25   3.165e-26   -24.603   -25.500    -0.896     (0)  
   FeCl3           1.197e-25   1.199e-25   -24.922   -24.921     0.001     (0)  
H(0)          5.894e-26
   H2              2.947e-26   2.951e-26   -25.531   -25.530     0.001     28.61
K             3.001e-05
   K+              2.992e-05   2.752e-05    -4.524    -4.560    -0.036      8.97
   KSO4-           9.239e-08   8.507e-08    -7.034    -7.070    -0.036     (0)  
   KOH             1.476e-12   1.478e-12   -11.831   -11.830     0.001     (0)  
Mg            3.701e-04
   Mg+2            3.379e-04   2.460e-04    -3.471    -3.609    -0.138    -21.16
   MgSO4           2.534e-05   2.537e-05    -4.596    -4.596     0.001      5.84
   MgHCO3+         6.498e-06   5.983e-06    -5.187    -5.223    -0.036      5.52
   MgCO3           3.539e-07   3.544e-07    -6.451    -6.450     0.001    -17.09
   MgOH+           1.502e-08   1.383e-08    -7.823    -7.859    -0.036     (0)  
Mn(2)         1.000e-07
   Mn+2            7.739e-08   5.639e-08    -7.111    -7.249    -0.137    -16.89
   MnHCO3+         1.134e-08   1.045e-08    -7.945    -7.981    -0.036     (0)  
   MnCO3           6.753e-09   6.762e-09    -8.171    -8.170     0.001     (0)  
   MnSO4           4.406e-09   4.412e-09    -8.356    -8.355     0.001      4.99
   MnCl+           1.102e-10   1.015e-10    -9.958    -9.994    -0.036      6.30
   MnOH+           2.438e-11   2.245e-11   -10.613   -10.649    -0.036     (0)  
   MnCl2           1.953e-14   1.956e-14   -13.709   -13.709     0.001     (0)  
   MnCl3-          2.584e-18   2.379e-18   -17.588   -17.624    -0.036     (0)  
Mn(3)         3.663e-29
   Mn+3            3.663e-29   1.743e-29   -28.436   -28.759    -0.323     (0)  
Na            9.603e-04
   Na+             9.563e-04   8.812e-04    -3.019    -3.055    -0.036     -1.16
   NaSO4-          2.110e-06   1.943e-06    -5.676    -5.711    -0.036     16.73
   NaHCO3          1.829e-06   1.832e-06    -5.738    -5.737     0.001     29.13
   NaCO3-          2.690e-08   2.477e-08    -7.570    -7.606    -0.036     -2.80
   NaOH            1.366e-20   1.368e-20   -19.865   -19.864     0.001     (0)  
O(0)          2.201e-04
   O2              1.100e-04   1.102e-04    -3.958    -3.958     0.001     30.40
S(6)          7.002e-04
   SO4-2           6.085e-04   4.400e-04    -3.216    -3.357    -0.141     15.06
   CaSO4           6.414e-05   6.423e-05    -4.193    -4.192     0.001      7.50
   MgSO4           2.534e-05   2.537e-05    -4.596    -4.596     0.001      5.84
   NaSO4-          2.110e-06   1.943e-06    -5.676    -5.711    -0.036     16.73
   KSO4-           9.239e-08   8.507e-08    -7.034    -7.070    -0.036     (0)  
   ZnSO4           1.222e-08   1.224e-08    -7.913    -7.912     0.001     (0)  
   FeSO4           8.440e-09   8.452e-09    -8.074    -8.073     0.001     (0)  
   MnSO4           4.406e-09   4.412e-09    -8.356    -8.355     0.001      4.99
   HSO4-           3.000e-09   2.762e-09    -8.523    -8.559    -0.036     35.21
   CuSO4           2.012e-09   2.014e-09    -8.696    -8.696     0.001     (0)  
   Zn(SO4)2-2      6.090e-11   4.378e-11   -10.215   -10.359    -0.143     (0)  
   CaHSO4+         2.960e-11   2.726e-11   -10.529   -10.565    -0.036     (0)  
   AlSO4+          1.925e-12   1.772e-12   -11.716   -11.752    -0.036     (0)  
   Al(SO4)2-       2.678e-14   2.466e-14   -13.572   -13.608    -0.036     (0)  
   FeHSO4+         3.896e-15   3.587e-15   -14.409   -14.445    -0.036     (0)  
   FeSO4+          5.405e-16   4.977e-16   -15.267   -15.303    -0.036     (0)  
   Fe(SO4)2-       5.203e-18   4.790e-18   -17.284   -17.320    -0.036     (0)  
   AlHSO4+2        1.411e-20   1.015e-20   -19.850   -19.994    -0.143     (0)  
   FeHSO4+2        1.197e-22   8.605e-23   -21.922   -22.065    -0.143     (0)  
Zn            2.501e-07
   Zn+2            1.641e-07   1.187e-07    -6.785    -6.926    -0.141    -24.09
   ZnCO3           3.570e-08   3.575e-08    -7.447    -7.447     0.001     (0)  
   ZnHCO3+         3.373e-08   3.105e-08    -7.472    -7.508    -0.036     (0)  
   ZnSO4           1.222e-08   1.224e-08    -7.913    -7.912     0.001     (0)  
   ZnOH+           2.189e-09   2.015e-09    -8.660    -8.696    -0.036     (0)  
   Zn(CO3)2-2      1.605e-09   1.154e-09    -8.794    -8.938    -0.143     (0)  
   Zn(OH)2         3.579e-10   3.583e-10    -9.446    -9.446     0.001     (0)  
   ZnCl+           1.532e-10   1.411e-10    -9.815    -9.851    -0.036     -1.76
   Zn(SO4)2-2      6.090e-11   4.378e-11   -10.215   -10.359    -0.143     (0)  
   ZnCl2           6.515e-14   6.524e-14   -13.186   -13.185     0.001     24.06
   Zn(OH)3-        1.906e-14   1.755e-14   -13.720   -13.756    -0.036     (0)  
   ZnCl3-          3.511e-17   3.233e-17   -16.455   -16.490    -0.036     53.75
   Zn(OH)4-2       5.993e-20   4.307e-20   -19.222   -19.366    -0.143     (0)  
   ZnCl4-2         9.956e-21   7.156e-21   -20.002   -20.145    -0.143     87.82

------------------------------Saturation indices-------------------------------

	Phase               SI   log IAP   log K(298 K,   1 atm)

	Al(OH)3(a)       -1.13      9.67   10.80  Al(OH)3
	AlOHSO4          -5.86     -8.06   -2.20  AlOHSO4
	Alunite          -2.42     -3.82   -1.40  KAl3(SO4)2(OH)6
	Anhydrite        -2.22     -6.44   -4.22  CaSO4
	Aragonite        -0.57     -8.91   -8.34  CaCO3
	Calcite          -0.43     -8.91   -8.48  CaCO3
	CO2(g)           -2.06     -3.52   -1.46  CO2	 Pressure   0.0 atm, phi 1.000.
	Dolomite         -1.25    -18.34  -17.09  CaMg(CO3)2
	Fe(OH)3           0.69      5.58    4.89  Fe(OH)3
	Fe(OH)3(a)        0.69      5.58    4.89  Fe(OH)3
	Gibbsite          1.56      9.67    8.11  Al(OH)3
	Goethite          6.58      5.58   -1.00  FeOOH
	Gypsum           -1.86     -6.44   -4.58  CaSO4:2H2O
	H2(g)           -22.43    -25.53   -3.10  H2
	H2O(g)           -1.50     -0.00    1.50  H2O
	Halite           -7.99     -6.41    1.58  NaCl
	Hausmannite     -17.26     43.77   61.03  Mn3O4
	Hematite         15.17     11.17   -4.01  Fe2O3
	Jarosite-K       -6.88    -16.09   -9.21  KFe3(SO4)2(OH)6
	Manganite        -7.02     18.32   25.34  MnOOH
	Melanterite      -8.11    -10.32   -2.21  FeSO4:7H2O
	MnO2            -11.87     29.51   41.38  MnO2
	O2(g)            -1.07     -3.96   -2.89  O2
	Pyrochroite      -8.07      7.13   15.20  Mn(OH)2
	Pyrolusite      -11.87     29.51   41.38  MnO2:H2O
	Rhodochrosite    -1.94    -13.07  -11.13  MnCO3
	Siderite         -1.90    -12.79  -10.89  FeCO3
	Smithsonite      -2.75    -12.75  -10.00  ZnCO3
	Zn(OH)2(e)       -4.05      7.45   11.50  Zn(OH)2


------------------------------------
Beginning of advection calculations.
------------------------------------

Beginning of advection time step 1, cumulative pore volumes 0.200000.
Beginning of advection time step 2, cumulative pore volumes 0.400000.
Beginning of advection time step 3, cumulative pore volumes 0.600000.
Beginning of advection time step 4, cumulative pore volumes 0.800000.
Beginning of advection time step 5, cumulative pore volumes 1.000000.

Cell 1.

Using solution 1.	
Using surface 1.	
Using pure phase assemblage 1.	Pure-phase assemblage after simulation 1.

-------------------------------Phase assemblage--------------------------------

                                                      Moles in assemblage
Phase               SI  log IAP  log K(T, P)   Initial       Final       Delta

Al(OH)3(a)       -0.00    10.80     10.80    4.256e-02   4.637e-02   3.805e-03
AlOHSO4          -0.00    -2.20     -2.20    0.000e+00   6.707e-03   6.707e-03
Calcite          -4.92   -13.40     -8.48    0.000e+00           0   0.000e+00
Fe(OH)3           0.00     4.89      4.89    8.199e-01   8.199e-01  -2.938e-05
Gypsum           -0.00    -4.58     -4.58    1.408e-01   1.425e-01   1.756e-03
MnO2            -15.55    25.83     41.38    0.000e+00           0   0.000e+00

------------------------------Surface composition------------------------------

Surf          
	  7.750e-02  Surface charge, eq
	  1.917e-01  sigma, C/m**2
	  1.023e-01  psi, V
	 -3.980e+00  -F*psi/RT
	  1.869e-02  exp(-F*psi/RT)
	  6.000e+02  specific area, m**2/g
	  3.900e+04  m**2 for   6.500e+01 g


Surf          
	  1.500e-01  moles
	                                   Mole                     Log
	Species               Moles    Fraction    Molality    Molality

	SurfOH            6.913e-02       0.461   6.916e-02      -1.160
	SurfOH2+          6.497e-02       0.433   6.499e-02      -1.187
	SurfOCu+          1.209e-02       0.081   1.209e-02      -1.917
	SurfOMn+          1.719e-03       0.011   1.719e-03      -2.765
	SurfO-            1.685e-03       0.011   1.686e-03      -2.773
	SurfOZn+          4.095e-04       0.003   4.096e-04      -3.388

-----------------------------Solution composition------------------------------

	Elements           Molality       Moles

	Al                1.425e-04   1.425e-04
	C                 1.047e-05   1.047e-05
	Ca                1.002e-02   1.001e-02
	Cl                9.643e-03   9.640e-03
	Cu                3.956e-05   3.954e-05
	Fe                5.322e-02   5.320e-02
	K                 2.030e-04   2.029e-04
	Mg                1.604e-02   1.603e-02
	Mn                7.729e-03   7.726e-03
	Na                9.542e-03   9.538e-03
	S                 9.353e-02   9.349e-02
	Zn                6.509e-04   6.507e-04

----------------------------Description of solution----------------------------

                                       pH  =   5.589      Charge balance
                                       pe  =   3.174      Adjusted to redox equilibrium
       Specific Conductance (uS/cm, 25 oC) = 9062
                          Density (g/cm3)  =   1.01058
                        Activity of water  =   0.997
                           Ionic strength  =   2.070e-01
                       Mass of water (kg)  =   9.996e-01
                 Total alkalinity (eq/kg)  =   4.894e-05
                       Total CO2 (mol/kg)  =   1.047e-05
                      Temperature (deg C)  =  25.00
                  Electrical balance (eq)  =  -1.119e-02
 Percent error, 100*(Cat-|An|)/(Cat+|An|)  =  -5.16
                               Iterations  =   8
                                  Total H  = 1.109693e+02
                                  Total O  = 5.585868e+01

----------------------------Distribution of species----------------------------

                                               Log       Log       Log    mole V
   Species          Molality    Activity  Molality  Activity     Gamma   cm3/mol

   H+              3.239e-06   2.579e-06    -5.490    -5.589    -0.099      0.00
   OH-             5.504e-09   3.875e-09    -8.259    -8.412    -0.152     -3.35
   H2O             5.551e+01   9.973e-01     1.744    -0.001     0.000     18.07
Al            1.425e-04
   AlSO4+          6.926e-05   5.160e-05    -4.160    -4.287    -0.128     (0)  
   Al(SO4)2-       3.275e-05   2.440e-05    -4.485    -4.613    -0.128     (0)  
   Al(OH)2+        1.705e-05   1.270e-05    -4.768    -4.896    -0.128     (0)  
   AlOH+2          1.360e-05   4.192e-06    -4.866    -5.378    -0.511    -26.12
   Al+3            8.483e-06   1.091e-06    -5.071    -5.962    -0.891    -40.76
   Al(OH)4-        7.080e-07   5.275e-07    -6.150    -6.278    -0.128     (0)  
   Al(OH)3         6.901e-07   7.238e-07    -6.161    -6.140     0.021     (0)  
   AlHSO4+2        3.830e-11   1.180e-11   -10.417   -10.928    -0.511     (0)  
C(-4)         0.000e+00
   CH4             0.000e+00   0.000e+00   -50.866   -50.846     0.021     32.22
C(4)          1.047e-05
   CO2             6.898e-06   7.235e-06    -5.161    -5.141     0.021     30.26
   HCO3-           1.672e-06   1.244e-06    -5.777    -5.905    -0.128     25.43
   FeHCO3+         1.578e-06   1.175e-06    -5.802    -5.930    -0.128     (0)  
   MnHCO3+         2.033e-07   1.515e-07    -6.692    -6.820    -0.128     (0)  
   MgHCO3+         4.990e-08   3.718e-08    -7.302    -7.430    -0.128      5.87
   CaHCO3+         3.766e-08   2.802e-08    -7.424    -7.553    -0.128     10.06
   ZnHCO3+         1.680e-08   1.251e-08    -7.775    -7.903    -0.128     (0)  
   NaHCO3          7.814e-09   8.195e-09    -8.107    -8.086     0.021     29.13
   FeCO3           4.888e-09   5.127e-09    -8.311    -8.290     0.021     (0)  
   MnCO3           2.341e-09   2.455e-09    -8.631    -8.610     0.021     (0)  
   ZnCO3           3.438e-10   3.606e-10    -9.464    -9.443     0.021     (0)  
   CO3-2           7.383e-11   2.262e-11   -10.132   -10.645    -0.514     -2.32
   CaCO3           6.396e-11   6.708e-11   -10.194   -10.173     0.021    -14.60
   MgCO3           5.257e-11   5.514e-11   -10.279   -10.259     0.021    -17.09
   NaCO3-          3.724e-12   2.775e-12   -11.429   -11.557    -0.128     -1.43
   Zn(CO3)2-2      5.661e-16   1.744e-16   -15.247   -15.758    -0.511     (0)  
Ca            1.002e-02
   Ca+2            5.544e-03   1.765e-03    -2.256    -2.753    -0.497    -17.33
   CaSO4           4.474e-03   4.693e-03    -2.349    -2.329     0.021      7.50
   CaHSO4+         1.068e-07   7.956e-08    -6.971    -7.099    -0.128     (0)  
   CaHCO3+         3.766e-08   2.802e-08    -7.424    -7.553    -0.128     10.06
   CaOH+           1.520e-10   1.133e-10    -9.818    -9.946    -0.128     (0)  
   CaCO3           6.396e-11   6.708e-11   -10.194   -10.173     0.021    -14.60
Cl            9.643e-03
   Cl-             9.473e-03   6.718e-03    -2.023    -2.173    -0.149     18.45
   FeCl+           1.176e-04   8.760e-05    -3.930    -4.057    -0.128     (0)  
   MnCl+           5.018e-05   3.739e-05    -4.299    -4.427    -0.128      6.65
   ZnCl+           1.939e-06   1.445e-06    -5.712    -5.840    -0.128     -1.41
   MnCl2           1.045e-07   1.096e-07    -6.981    -6.960     0.021     (0)  
   ZnCl2           9.689e-09   1.016e-08    -8.014    -7.993     0.021     24.06
   MnCl3-          2.723e-10   2.029e-10    -9.565    -9.693    -0.128     (0)  
   ZnCl3-          1.028e-10   7.660e-11    -9.988   -10.116    -0.128     54.10
   FeCl+2          8.861e-13   2.730e-13   -12.052   -12.564    -0.511     (0)  
   ZnCl4-2         8.371e-13   2.579e-13   -12.077   -12.588    -0.511     89.21
   FeCl2+          1.100e-14   8.194e-15   -13.959   -14.087    -0.128     (0)  
   FeCl3           5.249e-18   5.505e-18   -17.280   -17.259     0.021     (0)  
Cu(1)         3.147e-06
   Cu+             3.147e-06   2.133e-06    -5.502    -5.671    -0.169     (0)  
Cu(2)         3.641e-05
   Cu+2            1.871e-05   6.063e-06    -4.728    -5.217    -0.489    -22.99
   CuSO4           1.765e-05   1.851e-05    -4.753    -4.733     0.021     (0)  
   CuOH+           3.276e-08   2.345e-08    -7.485    -7.630    -0.145     (0)  
   Cu(OH)2         1.806e-08   1.894e-08    -7.743    -7.723     0.021     (0)  
   Cu(OH)3-        5.923e-16   4.413e-16   -15.227   -15.355    -0.128     (0)  
   Cu(OH)4-2       1.105e-22   3.405e-23   -21.957   -22.468    -0.511     (0)  
Fe(2)         5.322e-02
   Fe+2            2.915e-02   9.447e-03    -1.535    -2.025    -0.489    -20.59
   FeSO4           2.395e-02   2.512e-02    -1.621    -1.600     0.021     (0)  
   FeCl+           1.176e-04   8.760e-05    -3.930    -4.057    -0.128     (0)  
   FeHCO3+         1.578e-06   1.175e-06    -5.802    -5.930    -0.128     (0)  
   FeOH+           1.550e-06   1.155e-06    -5.810    -5.937    -0.128     (0)  
   FeHSO4+         5.715e-07   4.258e-07    -6.243    -6.371    -0.128     (0)  
   FeCO3           4.888e-09   5.127e-09    -8.311    -8.290     0.021     (0)  
   Fe(HS)2         0.000e+00   0.000e+00   -80.809   -80.789     0.021     (0)  
   Fe(HS)3-        0.000e+00   0.000e+00  -122.481  -122.608    -0.128     (0)  
Fe(3)         6.092e-07
   Fe(OH)2+        5.774e-07   4.302e-07    -6.239    -6.366    -0.128     (0)  
   Fe(OH)3         2.043e-08   2.143e-08    -7.690    -7.669     0.021     (0)  
   FeOH+2          1.090e-08   3.360e-09    -7.962    -8.474    -0.511     (0)  
   FeSO4+          2.961e-10   2.206e-10    -9.529    -9.656    -0.128     (0)  
   Fe(SO4)2-       9.686e-11   7.217e-11   -10.014   -10.142    -0.128     (0)  
   Fe+3            1.046e-11   1.346e-12   -10.980   -11.871    -0.891     (0)  
   Fe(OH)4-        1.014e-11   7.557e-12   -10.994   -11.122    -0.128     (0)  
   FeCl+2          8.861e-13   2.730e-13   -12.052   -12.564    -0.511     (0)  
   Fe2(OH)2+4      3.371e-14   3.038e-16   -13.472   -15.517    -2.045     (0)  
   FeCl2+          1.100e-14   8.194e-15   -13.959   -14.087    -0.128     (0)  
   FeHSO4+2        4.945e-15   1.524e-15   -14.306   -14.817    -0.511     (0)  
   Fe3(OH)4+5      4.283e-17   2.731e-20   -16.368   -19.564    -3.195     (0)  
   FeCl3           5.249e-18   5.505e-18   -17.280   -17.259     0.021     (0)  
H(0)          4.035e-21
   H2              2.018e-21   2.116e-21   -20.695   -20.674     0.021     28.61
K             2.030e-04
   K+              1.846e-04   1.309e-04    -3.734    -3.883    -0.149      9.35
   KSO4-           1.846e-05   1.375e-05    -4.734    -4.862    -0.128     (0)  
   KOH             1.673e-13   1.755e-13   -12.776   -12.756     0.021     (0)  
Mg            1.604e-02
   MgSO4           8.535e-03   8.951e-03    -2.069    -2.048     0.021      5.84
   Mg+2            7.504e-03   2.554e-03    -2.125    -2.593    -0.468    -20.39
   MgHCO3+         4.990e-08   3.718e-08    -7.302    -7.430    -0.128      5.87
   MgOH+           4.813e-09   3.586e-09    -8.318    -8.445    -0.128     (0)  
   MgCO3           5.257e-11   5.514e-11   -10.279   -10.259     0.021    -17.09
Mn(2)         7.729e-03
   Mn+2            4.216e-03   1.366e-03    -2.375    -2.865    -0.489    -15.49
   MnSO4           3.463e-03   3.632e-03    -2.461    -2.440     0.021      4.99
   MnCl+           5.018e-05   3.739e-05    -4.299    -4.427    -0.128      6.65
   MnHCO3+         2.033e-07   1.515e-07    -6.692    -6.820    -0.128     (0)  
   MnCl2           1.045e-07   1.096e-07    -6.981    -6.960     0.021     (0)  
   MnOH+           1.822e-08   1.358e-08    -7.739    -7.867    -0.128     (0)  
   MnCO3           2.341e-09   2.455e-09    -8.631    -8.610     0.021     (0)  
   MnCl3-          2.723e-10   2.029e-10    -9.565    -9.693    -0.128     (0)  
Mn(3)         8.903e-25
   Mn+3            8.903e-25   6.298e-26   -24.050   -25.201    -1.150     (0)  
Na            9.542e-03
   Na+             8.879e-03   6.587e-03    -2.052    -2.181    -0.130     -0.88
   NaSO4-          6.625e-04   4.936e-04    -3.179    -3.307    -0.128     17.80
   NaHCO3          7.814e-09   8.195e-09    -8.107    -8.086     0.021     29.13
   NaCO3-          3.724e-12   2.775e-12   -11.429   -11.557    -0.128     -1.43
   NaOH            2.434e-21   2.553e-21   -20.614   -20.593     0.021     (0)  
O(0)          0.000e+00
   O2              0.000e+00   0.000e+00   -51.054   -51.033     0.021     30.40
S(-2)         0.000e+00
   H2S             0.000e+00   0.000e+00   -42.524   -42.504     0.021     37.16
   HS-             0.000e+00   0.000e+00   -43.705   -43.857    -0.152     20.99
   S-2             0.000e+00   0.000e+00   -50.655   -51.186    -0.531     (0)  
   Fe(HS)2         0.000e+00   0.000e+00   -80.809   -80.789     0.021     (0)  
   Fe(HS)3-        0.000e+00   0.000e+00  -122.481  -122.608    -0.128     (0)  
S(6)          9.353e-02
   SO4-2           5.178e-02   1.495e-02    -1.286    -1.825    -0.540     16.56
   FeSO4           2.395e-02   2.512e-02    -1.621    -1.600     0.021     (0)  
   MgSO4           8.535e-03   8.951e-03    -2.069    -2.048     0.021      5.84
   CaSO4           4.474e-03   4.693e-03    -2.349    -2.329     0.021      7.50
   MnSO4           3.463e-03   3.632e-03    -2.461    -2.440     0.021      4.99
   NaSO4-          6.625e-04   4.936e-04    -3.179    -3.307    -0.128     17.80
   ZnSO4           2.670e-04   2.800e-04    -3.574    -3.553     0.021     (0)  
   Zn(SO4)2-2      1.104e-04   3.403e-05    -3.957    -4.468    -0.511     (0)  
   AlSO4+          6.926e-05   5.160e-05    -4.160    -4.287    -0.128     (0)  
   Al(SO4)2-       3.275e-05   2.440e-05    -4.485    -4.613    -0.128     (0)  
   KSO4-           1.846e-05   1.375e-05    -4.734    -4.862    -0.128     (0)  
   CuSO4           1.765e-05   1.851e-05    -4.753    -4.733     0.021     (0)  
   HSO4-           5.032e-06   3.749e-06    -5.298    -5.426    -0.128     35.56
   FeHSO4+         5.715e-07   4.258e-07    -6.243    -6.371    -0.128     (0)  
   CaHSO4+         1.068e-07   7.956e-08    -6.971    -7.099    -0.128     (0)  
   FeSO4+          2.961e-10   2.206e-10    -9.529    -9.656    -0.128     (0)  
   Fe(SO4)2-       9.686e-11   7.217e-11   -10.014   -10.142    -0.128     (0)  
   AlHSO4+2        3.830e-11   1.180e-11   -10.417   -10.928    -0.511     (0)  
   FeHSO4+2        4.945e-15   1.524e-15   -14.306   -14.817    -0.511     (0)  
Zn            6.509e-04
   Zn+2            2.715e-04   7.989e-05    -3.566    -4.098    -0.531    -22.69
   ZnSO4           2.670e-04   2.800e-04    -3.574    -3.553     0.021     (0)  
   Zn(SO4)2-2      1.104e-04   3.403e-05    -3.957    -4.468    -0.511     (0)  
   ZnCl+           1.939e-06   1.445e-06    -5.712    -5.840    -0.128     -1.41
   ZnOH+           4.546e-08   3.387e-08    -7.342    -7.470    -0.128     (0)  
   ZnHCO3+         1.680e-08   1.251e-08    -7.775    -7.903    -0.128     (0)  
   ZnCl2           9.689e-09   1.016e-08    -8.014    -7.993     0.021     24.06
   ZnCO3           3.438e-10   3.606e-10    -9.464    -9.443     0.021     (0)  
   Zn(OH)2         1.434e-10   1.504e-10    -9.844    -9.823     0.021     (0)  
   ZnCl3-          1.028e-10   7.660e-11    -9.988   -10.116    -0.128     54.10
   ZnCl4-2         8.371e-13   2.579e-13   -12.077   -12.588    -0.511     89.21
   Zn(CO3)2-2      5.661e-16   1.744e-16   -15.247   -15.758    -0.511     (0)  
   Zn(OH)3-        2.468e-16   1.839e-16   -15.608   -15.735    -0.128     (0)  
   Zn(OH)4-2       3.657e-23   1.127e-23   -22.437   -22.948    -0.511     (0)  

------------------------------Saturation indices-------------------------------

	Phase               SI   log IAP   log K(298 K,   1 atm)

	Al(OH)3(a)       -0.00     10.80   10.80  Al(OH)3
	AlOHSO4          -0.00     -2.20   -2.20  AlOHSO4
	Alunite           9.50      8.10   -1.40  KAl3(SO4)2(OH)6
	Anhydrite        -0.36     -4.58   -4.22  CaSO4
	Aragonite        -5.06    -13.40   -8.34  CaCO3
	Calcite          -4.92    -13.40   -8.48  CaCO3
	CH4(g)          -48.00    -50.85   -2.84  CH4
	CO2(g)           -3.68     -5.14   -1.46  CO2	 Pressure   0.0 atm, phi 1.000.
	Dolomite         -9.55    -26.64  -17.09  CaMg(CO3)2
	Fe(OH)3           0.00      4.89    4.89  Fe(OH)3
	Fe(OH)3(a)        0.00      4.89    4.89  Fe(OH)3
	FeS(ppt)        -36.38    -40.29   -3.92  FeS
	Gibbsite          2.69     10.80    8.11  Al(OH)3
	Goethite          5.89      4.89   -1.00  FeOOH
	Gypsum           -0.00     -4.58   -4.58  CaSO4:2H2O
	H2(g)           -17.57    -20.67   -3.10  H2
	H2O(g)           -1.50     -0.00    1.50  H2O
	H2S(g)          -41.45    -49.45   -7.99  H2S
	Halite           -5.94     -4.35    1.58  NaCl
	Hausmannite     -18.57     42.46   61.03  Mn3O4
	Hematite         13.79      9.79   -4.01  Fe2O3
	Jarosite-K       -0.41     -9.62   -9.21  KFe3(SO4)2(OH)6
	Mackinawite     -35.65    -40.29   -4.65  FeS
	Manganite        -8.27     17.07   25.34  MnOOH
	Melanterite      -1.65     -3.86   -2.21  FeSO4:7H2O
	MnO2            -15.55     25.83   41.38  MnO2
	O2(g)           -48.14    -51.03   -2.89  O2
	Pyrite          -53.74    -72.21  -18.48  FeS2
	Pyrochroite      -6.89      8.31   15.20  Mn(OH)2
	Pyrolusite      -15.55     25.83   41.38  MnO2:H2O
	Rhodochrosite    -2.38    -13.51  -11.13  MnCO3
	Siderite         -1.78    -12.67  -10.89  FeCO3
	Smithsonite      -4.74    -14.74  -10.00  ZnCO3
	Sphalerite      -30.75    -42.37  -11.62  ZnS
	Sulfur          -29.86    -24.98    4.88  S
	Zn(OH)2(e)       -4.42      7.08   11.50  Zn(OH)2



Cell 2.

Using solution 2.	Solution after simulation 1.
Using surface 2.	
Using pure phase assemblage 2.	Pure-phase assemblage after simulation 1.

-------------------------------Phase assemblage--------------------------------

                                                      Moles in assemblage
Phase               SI  log IAP  log K(T, P)   Initial       Final       Delta

Al(OH)3(a)        0.00    10.80     10.80    0.000e+00   1.927e-05   1.927e-05
AlOHSO4          -1.78    -3.98     -2.20    0.000e+00           0   0.000e+00
Calcite           0.00    -8.48     -8.48    1.021e-01   6.490e-02  -3.715e-02
Fe(OH)3           0.00     4.89      4.89    7.996e-01   8.200e-01   2.039e-02
Gypsum           -0.00    -4.58     -4.58    4.119e-02   7.660e-02   3.541e-02
MnO2            -16.57    24.81     41.38    1.020e-02           0  -1.020e-02

------------------------------Surface composition------------------------------

Surf          
	  4.979e-02  Surface charge, eq
	  1.232e-01  sigma, C/m**2
	  8.580e-02  psi, V
	 -3.340e+00  -F*psi/RT
	  3.545e-02  exp(-F*psi/RT)
	  6.000e+02  specific area, m**2/g
	  3.900e+04  m**2 for   6.500e+01 g


Surf          
	  1.500e-01  moles
	                                   Mole                     Log
	Species               Moles    Fraction    Molality    Molality

	SurfOH            8.513e-02       0.568   8.534e-02      -1.069
	SurfOMn+          3.480e-02       0.232   3.489e-02      -1.457
	SurfOH2+          2.201e-02       0.147   2.206e-02      -1.656
	SurfO-            7.544e-03       0.050   7.563e-03      -2.121
	SurfOZn+          4.726e-04       0.003   4.738e-04      -3.324
	SurfOCu+          4.688e-05       0.000   4.699e-05      -4.328

-----------------------------Solution composition------------------------------

	Elements           Molality       Moles

	Al                8.487e-06   8.466e-06
	C                 3.726e-02   3.716e-02
	Ca                1.152e-02   1.149e-02
	Cl                9.664e-03   9.640e-03
	Cu                1.358e-07   1.354e-07
	Fe                3.289e-02   3.281e-02
	K                 2.034e-04   2.029e-04
	Mg                1.607e-02   1.603e-02
	Mn                1.117e-02   1.114e-02
	Na                9.562e-03   9.538e-03
	S                 6.469e-02   6.453e-02
	Zn                5.167e-05   5.154e-05

----------------------------Description of solution----------------------------

                                       pH  =   6.427      Charge balance
                                       pe  =   0.934      Adjusted to redox equilibrium
       Specific Conductance (uS/cm, 25 oC) = 7744
                          Density (g/cm3)  =   1.00825
                        Activity of water  =   0.997
                           Ionic strength  =   1.678e-01
                       Mass of water (kg)  =   9.975e-01
                 Total alkalinity (eq/kg)  =   2.799e-02
                       Total CO2 (mol/kg)  =   3.726e-02
                      Temperature (deg C)  =  25.00
                  Electrical balance (eq)  =  -1.379e-02
 Percent error, 100*(Cat-|An|)/(Cat+|An|)  =  -7.24
                               Iterations  =   7
                                  Total H  = 1.107639e+02
                                  Total O  = 5.572832e+01

----------------------------Distribution of species----------------------------

                                               Log       Log       Log    mole V
   Species          Molality    Activity  Molality  Activity     Gamma   cm3/mol

   H+              4.649e-07   3.740e-07    -6.333    -6.427    -0.094      0.00
   OH-             3.706e-08   2.673e-08    -7.431    -7.573    -0.142     -3.46
   H2O             5.551e+01   9.974e-01     1.744    -0.001     0.000     18.07
Al            8.487e-06
   Al(OH)4-        4.823e-06   3.638e-06    -5.317    -5.439    -0.123     (0)  
   Al(OH)2+        2.442e-06   1.842e-06    -5.612    -5.735    -0.123     (0)  
   Al(OH)3         6.963e-07   7.238e-07    -6.157    -6.140     0.017     (0)  
   AlOH+2          2.724e-07   8.813e-08    -6.565    -7.055    -0.490    -26.29
   AlSO4+          1.664e-07   1.255e-07    -6.779    -6.901    -0.123     (0)  
   Al(SO4)2-       6.275e-08   4.733e-08    -7.202    -7.325    -0.123     (0)  
   Al+3            2.357e-08   3.327e-09    -7.628    -8.478    -0.850    -41.14
   AlHSO4+2        1.286e-14   4.162e-15   -13.891   -14.381    -0.490     (0)  
C(-4)         3.105e-37
   CH4             3.105e-37   3.227e-37   -36.508   -36.491     0.017     32.22
C(4)          3.726e-02
   HCO3-           1.578e-02   1.194e-02    -1.802    -1.923    -0.121     25.31
   CO2             9.686e-03   1.007e-02    -2.014    -1.997     0.017     30.26
   FeHCO3+         7.924e-03   5.976e-03    -2.101    -2.224    -0.123     (0)  
   MnHCO3+         2.423e-03   1.828e-03    -2.616    -2.738    -0.123     (0)  
   MgHCO3+         5.248e-04   3.958e-04    -3.280    -3.403    -0.123      5.83
   CaHCO3+         4.453e-04   3.371e-04    -3.351    -3.472    -0.121     10.02
   MnCO3           1.965e-04   2.043e-04    -3.707    -3.690     0.017     (0)  
   FeCO3           1.729e-04   1.798e-04    -3.762    -3.745     0.017     (0)  
   NaHCO3          7.742e-05   8.047e-05    -4.111    -4.094     0.017     29.13
   ZnHCO3+         1.141e-05   8.605e-06    -4.943    -5.065    -0.123     (0)  
   CaCO3           5.354e-06   5.565e-06    -5.271    -5.255     0.017    -14.60
   CO3-2           4.563e-06   1.497e-06    -5.341    -5.825    -0.484     -2.51
   MgCO3           3.894e-06   4.048e-06    -5.410    -5.393     0.017    -17.09
   ZnCO3           1.645e-06   1.710e-06    -5.784    -5.767     0.017     (0)  
   NaCO3-          2.491e-07   1.879e-07    -6.604    -6.726    -0.123     -1.67
   Zn(CO3)2-2      1.692e-07   5.475e-08    -6.772    -7.262    -0.490     (0)  
Ca            1.152e-02
   Ca+2            6.557e-03   2.212e-03    -2.183    -2.655    -0.472    -17.40
   CaSO4           4.514e-03   4.692e-03    -2.345    -2.329     0.017      7.50
   CaHCO3+         4.453e-04   3.371e-04    -3.351    -3.472    -0.121     10.02
   CaCO3           5.354e-06   5.565e-06    -5.271    -5.255     0.017    -14.60
   CaHSO4+         1.530e-08   1.154e-08    -7.815    -7.938    -0.123     (0)  
   CaOH+           1.298e-09   9.791e-10    -8.887    -9.009    -0.123     (0)  
Cl            9.664e-03
   Cl-             9.536e-03   6.916e-03    -2.021    -2.160    -0.140     18.41
   MnCl+           6.416e-05   4.838e-05    -4.193    -4.315    -0.123      6.61
   FeCl+           6.335e-05   4.778e-05    -4.198    -4.321    -0.123     (0)  
   ZnCl+           1.413e-07   1.066e-07    -6.850    -6.972    -0.123     -1.45
   MnCl2           1.405e-07   1.461e-07    -6.852    -6.835     0.017     (0)  
   ZnCl2           7.424e-10   7.716e-10    -9.129    -9.113     0.017     24.06
   MnCl3-          3.689e-10   2.782e-10    -9.433    -9.556    -0.123     (0)  
   ZnCl3-          7.939e-12   5.988e-12   -11.100   -11.223    -0.123     54.05
   ZnCl4-2         6.415e-14   2.075e-14   -13.193   -13.683    -0.490     89.04
   FeCl+2          2.649e-15   8.569e-16   -14.577   -15.067    -0.490     (0)  
   FeCl2+          3.510e-17   2.647e-17   -16.455   -16.577    -0.123     (0)  
   FeCl3           1.761e-20   1.831e-20   -19.754   -19.737     0.017     (0)  
Cu(1)         1.279e-07
   Cu+             1.279e-07   8.922e-08    -6.893    -7.050    -0.156     (0)  
Cu(2)         7.913e-09
   Cu+2            4.232e-09   1.459e-09    -8.373    -8.836    -0.462    -23.16
   CuSO4           3.419e-09   3.554e-09    -8.466    -8.449     0.017     (0)  
   Cu(OH)2         2.086e-10   2.168e-10    -9.681    -9.664     0.017     (0)  
   CuOH+           5.321e-11   3.892e-11   -10.274   -10.410    -0.136     (0)  
   Cu(OH)3-        4.620e-17   3.484e-17   -16.335   -16.458    -0.123     (0)  
   Cu(OH)4-2       5.731e-23   1.854e-23   -22.242   -22.732    -0.490     (0)  
Fe(2)         3.289e-02
   Fe+2            1.451e-02   5.004e-03    -1.838    -2.301    -0.462    -20.76
   FeSO4           1.021e-02   1.061e-02    -1.991    -1.974     0.017     (0)  
   FeHCO3+         7.924e-03   5.976e-03    -2.101    -2.224    -0.123     (0)  
   FeCO3           1.729e-04   1.798e-04    -3.762    -3.745     0.017     (0)  
   FeCl+           6.335e-05   4.778e-05    -4.198    -4.321    -0.123     (0)  
   FeOH+           5.596e-06   4.220e-06    -5.252    -5.375    -0.123     (0)  
   FeHSO4+         3.460e-08   2.609e-08    -7.461    -7.583    -0.123     (0)  
   Fe(HS)2         0.000e+00   0.000e+00   -60.533   -60.516     0.017     (0)  
   Fe(HS)3-        0.000e+00   0.000e+00   -91.939   -92.062    -0.123     (0)  
Fe(3)         1.036e-07
   Fe(OH)2+        8.271e-08   6.238e-08    -7.082    -7.205    -0.123     (0)  
   Fe(OH)3         2.062e-08   2.143e-08    -7.686    -7.669     0.017     (0)  
   FeOH+2          2.184e-10   7.064e-11    -9.661   -10.151    -0.490     (0)  
   Fe(OH)4-        6.910e-11   5.212e-11   -10.160   -10.283    -0.123     (0)  
   FeSO4+          7.114e-13   5.365e-13   -12.148   -12.270    -0.123     (0)  
   Fe(SO4)2-       1.856e-13   1.400e-13   -12.731   -12.854    -0.123     (0)  
   Fe+3            2.907e-14   4.103e-15   -13.537   -14.387    -0.850     (0)  
   FeCl+2          2.649e-15   8.569e-16   -14.577   -15.067    -0.490     (0)  
   FeCl2+          3.510e-17   2.647e-17   -16.455   -16.577    -0.123     (0)  
   Fe2(OH)2+4      1.226e-17   1.343e-19   -16.911   -18.872    -1.960     (0)  
   FeHSO4+2        1.661e-18   5.373e-19   -17.780   -18.270    -0.490     (0)  
   FeCl3           1.761e-20   1.831e-20   -19.754   -19.737     0.017     (0)  
   Fe3(OH)4+5      2.025e-21   1.750e-24   -20.694   -23.757    -3.063     (0)  
H(0)          2.586e-18
   H2              1.293e-18   1.344e-18   -17.888   -17.872     0.017     28.61
K             2.034e-04
   K+              1.883e-04   1.365e-04    -3.725    -3.865    -0.140      9.30
   KSO4-           1.517e-05   1.144e-05    -4.819    -4.941    -0.123     (0)  
   KOH             1.215e-12   1.263e-12   -11.916   -11.899     0.017     (0)  
Mg            1.607e-02
   Mg+2            7.923e-03   2.833e-03    -2.101    -2.548    -0.447    -20.46
   MgSO4           7.620e-03   7.920e-03    -2.118    -2.101     0.017      5.84
   MgHCO3+         5.248e-04   3.958e-04    -3.280    -3.403    -0.123      5.83
   MgCO3           3.894e-06   4.048e-06    -5.410    -5.393     0.017    -17.09
   MgOH+           3.637e-08   2.743e-08    -7.439    -7.562    -0.123     (0)  
Mn(2)         1.117e-02
   Mn+2            4.980e-03   1.717e-03    -2.303    -2.765    -0.462    -15.66
   MnSO4           3.504e-03   3.642e-03    -2.455    -2.439     0.017      4.99
   MnHCO3+         2.423e-03   1.828e-03    -2.616    -2.738    -0.123     (0)  
   MnCO3           1.965e-04   2.043e-04    -3.707    -3.690     0.017     (0)  
   MnCl+           6.416e-05   4.838e-05    -4.193    -4.315    -0.123      6.61
   MnOH+           1.561e-07   1.177e-07    -6.807    -6.929    -0.123     (0)  
   MnCl2           1.405e-07   1.461e-07    -6.852    -6.835     0.017     (0)  
   MnCl3-          3.689e-10   2.782e-10    -9.433    -9.556    -0.123     (0)  
Mn(3)         5.772e-27
   Mn+3            5.772e-27   4.556e-28   -26.239   -27.341    -1.103     (0)  
Na            9.562e-03
   Na+             8.950e-03   6.739e-03    -2.048    -2.171    -0.123     -0.91
   NaSO4-          5.341e-04   4.028e-04    -3.272    -3.395    -0.123     17.62
   NaHCO3          7.742e-05   8.047e-05    -4.111    -4.094     0.017     29.13
   NaCO3-          2.491e-07   1.879e-07    -6.604    -6.726    -0.123     -1.67
   NaOH            1.733e-20   1.801e-20   -19.761   -19.744     0.017     (0)  
O(0)          0.000e+00
   O2              0.000e+00   0.000e+00   -56.656   -56.639     0.017     30.40
S(-2)         1.185e-33
   H2S             8.223e-34   8.547e-34   -33.085   -33.068     0.017     37.16
   HS-             3.625e-34   2.614e-34   -33.441   -33.583    -0.142     20.95
   S-2             2.666e-40   0.000e+00   -39.574   -40.074    -0.500     (0)  
   Fe(HS)2         0.000e+00   0.000e+00   -60.533   -60.516     0.017     (0)  
   Fe(HS)3-        0.000e+00   0.000e+00   -91.939   -92.062    -0.123     (0)  
S(6)          6.469e-02
   SO4-2           3.826e-02   1.193e-02    -1.417    -1.923    -0.506     16.37
   FeSO4           1.021e-02   1.061e-02    -1.991    -1.974     0.017     (0)  
   MgSO4           7.620e-03   7.920e-03    -2.118    -2.101     0.017      5.84
   CaSO4           4.514e-03   4.692e-03    -2.345    -2.329     0.017      7.50
   MnSO4           3.504e-03   3.642e-03    -2.455    -2.439     0.017      4.99
   NaSO4-          5.341e-04   4.028e-04    -3.272    -3.395    -0.123     17.62
   ZnSO4           1.540e-05   1.600e-05    -4.813    -4.796     0.017     (0)  
   KSO4-           1.517e-05   1.144e-05    -4.819    -4.941    -0.123     (0)  
   Zn(SO4)2-2      4.796e-06   1.552e-06    -5.319    -5.809    -0.490     (0)  
   HSO4-           5.750e-07   4.337e-07    -6.240    -6.363    -0.123     35.52
   AlSO4+          1.664e-07   1.255e-07    -6.779    -6.901    -0.123     (0)  
   Al(SO4)2-       6.275e-08   4.733e-08    -7.202    -7.325    -0.123     (0)  
   FeHSO4+         3.460e-08   2.609e-08    -7.461    -7.583    -0.123     (0)  
   CaHSO4+         1.530e-08   1.154e-08    -7.815    -7.938    -0.123     (0)  
   CuSO4           3.419e-09   3.554e-09    -8.466    -8.449     0.017     (0)  
   FeSO4+          7.114e-13   5.365e-13   -12.148   -12.270    -0.123     (0)  
   Fe(SO4)2-       1.856e-13   1.400e-13   -12.731   -12.854    -0.123     (0)  
   AlHSO4+2        1.286e-14   4.162e-15   -13.891   -14.381    -0.490     (0)  
   FeHSO4+2        1.661e-18   5.373e-19   -17.780   -18.270    -0.490     (0)  
Zn            5.167e-05
   Zn+2            1.808e-05   5.724e-06    -4.743    -5.242    -0.500    -22.86
   ZnSO4           1.540e-05   1.600e-05    -4.813    -4.796     0.017     (0)  
   ZnHCO3+         1.141e-05   8.605e-06    -4.943    -5.065    -0.123     (0)  
   Zn(SO4)2-2      4.796e-06   1.552e-06    -5.319    -5.809    -0.490     (0)  
   ZnCO3           1.645e-06   1.710e-06    -5.784    -5.767     0.017     (0)  
   Zn(CO3)2-2      1.692e-07   5.475e-08    -6.772    -7.262    -0.490     (0)  
   ZnCl+           1.413e-07   1.066e-07    -6.850    -6.972    -0.123     -1.45
   ZnOH+           2.219e-08   1.674e-08    -7.654    -7.776    -0.123     (0)  
   ZnCl2           7.424e-10   7.716e-10    -9.129    -9.113     0.017     24.06
   Zn(OH)2         4.931e-10   5.125e-10    -9.307    -9.290     0.017     (0)  
   ZnCl3-          7.939e-12   5.988e-12   -11.100   -11.223    -0.123     54.05
   ZnCl4-2         6.415e-14   2.075e-14   -13.193   -13.683    -0.490     89.04
   Zn(OH)3-        5.730e-15   4.322e-15   -14.242   -14.364    -0.123     (0)  
   Zn(OH)4-2       5.646e-21   1.826e-21   -20.248   -20.738    -0.490     (0)  

------------------------------Saturation indices-------------------------------

	Phase               SI   log IAP   log K(298 K,   1 atm)

	Al(OH)3(a)        0.00     10.80   10.80  Al(OH)3
	AlOHSO4          -1.78     -3.98   -2.20  AlOHSO4
	Alunite           6.81      5.41   -1.40  KAl3(SO4)2(OH)6
	Anhydrite        -0.36     -4.58   -4.22  CaSO4
	Aragonite        -0.14     -8.48   -8.34  CaCO3
	Calcite           0.00     -8.48   -8.48  CaCO3
	CH4(g)          -33.65    -36.49   -2.84  CH4
	CO2(g)           -0.54     -2.00   -1.46  CO2	 Pressure   0.0 atm, phi 1.000.
	Dolomite          0.24    -16.85  -17.09  CaMg(CO3)2
	Fe(OH)3           0.00      4.89    4.89  Fe(OH)3
	Fe(OH)3(a)        0.00      4.89    4.89  Fe(OH)3
	FeS(ppt)        -25.54    -29.46   -3.92  FeS
	Gibbsite          2.69     10.80    8.11  Al(OH)3
	Goethite          5.89      4.89   -1.00  FeOOH
	Gypsum           -0.00     -4.58   -4.58  CaSO4:2H2O
	H2(g)           -14.77    -17.87   -3.10  H2
	H2O(g)           -1.50     -0.00    1.50  H2O
	H2S(g)          -32.02    -40.01   -7.99  H2S
	Halite           -5.91     -4.33    1.58  NaCl
	Hausmannite     -16.05     44.98   61.03  Mn3O4
	Hematite         13.79      9.79   -4.01  Fe2O3
	Jarosite-K       -3.11    -12.32   -9.21  KFe3(SO4)2(OH)6
	Mackinawite     -24.81    -29.46   -4.65  FeS
	Manganite        -7.89     17.45   25.34  MnOOH
	Melanterite      -2.02     -4.23   -2.21  FeSO4:7H2O
	MnO2            -16.57     24.81   41.38  MnO2
	O2(g)           -53.75    -56.64   -2.89  O2
	Pyrite          -36.27    -54.74  -18.48  FeS2
	Pyrochroite      -5.11     10.09   15.20  Mn(OH)2
	Pyrolusite      -16.57     24.81   41.38  MnO2:H2O
	Rhodochrosite     2.54     -8.59  -11.13  MnCO3
	Siderite          2.76     -8.13  -10.89  FeCO3
	Smithsonite      -1.07    -11.07  -10.00  ZnCO3
	Sphalerite      -20.78    -32.40  -11.62  ZnS
	Sulfur          -23.23    -18.35    4.88  S
	Zn(OH)2(e)       -3.89      7.61   11.50  Zn(OH)2



Cell 3.

Using solution 3.	Solution after simulation 1.
Using surface 3.	
Using pure phase assemblage 3.	Pure-phase assemblage after simulation 1.

-------------------------------Phase assemblage--------------------------------

                                                      Moles in assemblage
Phase               SI  log IAP  log K(T, P)   Initial       Final       Delta

Al(OH)3(a)       -0.10    10.70     10.80    9.234e-07           0  -9.234e-07
AlOHSO4          -1.31    -3.51     -2.20    0.000e+00           0   0.000e+00
Calcite           0.00    -8.48     -8.48    1.480e-01   1.458e-01  -2.238e-03
Fe(OH)3          -0.00     4.89      4.89    7.300e-01   7.300e-01  -9.288e-09
Gypsum           -0.00    -4.58     -4.58    0.000e+00   2.271e-03   2.271e-03
MnO2             -0.00    41.38     41.38    4.500e-02   4.500e-02  -2.927e-11

------------------------------Surface composition------------------------------

Surf          
	  5.136e-02  Surface charge, eq
	  1.271e-01  sigma, C/m**2
	  9.518e-02  psi, V
	 -3.705e+00  -F*psi/RT
	  2.461e-02  exp(-F*psi/RT)
	  6.000e+02  specific area, m**2/g
	  3.900e+04  m**2 for   6.500e+01 g


Surf          
	  1.500e-01  moles
	                                   Mole                     Log
	Species               Moles    Fraction    Molality    Molality

	SurfOH            8.918e-02       0.595   8.956e-02      -1.048
	SurfOH2+          3.855e-02       0.257   3.871e-02      -1.412
	SurfOMn+          1.747e-02       0.116   1.755e-02      -1.756
	SurfO-            4.726e-03       0.032   4.746e-03      -2.324
	SurfOZn+          6.319e-05       0.000   6.345e-05      -4.198
	SurfOCu+          1.657e-07       0.000   1.664e-07      -6.779

-----------------------------Solution composition------------------------------

	Elements           Molality       Moles

	Al                9.453e-06   9.413e-06
	C                 6.876e-02   6.847e-02
	Ca                1.492e-02   1.486e-02
	Cl                9.680e-03   9.640e-03
	Cu                7.171e-11   7.141e-11
	Fe                2.175e-07   2.166e-07
	K                 2.038e-04   2.029e-04
	Mg                1.610e-02   1.603e-02
	Mn                1.774e-02   1.766e-02
	Na                9.578e-03   9.538e-03
	S                 3.674e-02   3.659e-02
	Zn                2.062e-05   2.054e-05

----------------------------Description of solution----------------------------

                                       pH  =   6.045      Charge balance
                                       pe  =   9.873      Adjusted to redox equilibrium
       Specific Conductance (uS/cm, 25 oC) = 6138
                          Density (g/cm3)  =   1.00478
                        Activity of water  =   0.997
                           Ionic strength  =   1.212e-01
                       Mass of water (kg)  =   9.958e-01
                 Total alkalinity (eq/kg)  =   3.251e-02
                       Total CO2 (mol/kg)  =   6.876e-02
                      Temperature (deg C)  =  25.00
                  Electrical balance (eq)  =  -8.274e-03
 Percent error, 100*(Cat-|An|)/(Cat+|An|)  =  -5.66
                               Iterations  =   5
                                  Total H  = 1.105790e+02
                                  Total O  = 5.558899e+01

----------------------------Distribution of species----------------------------

                                               Log       Log       Log    mole V
   Species          Molality    Activity  Molality  Activity     Gamma   cm3/mol

   H+              1.102e-06   9.008e-07    -5.958    -6.045    -0.088      0.00
   OH-             1.486e-08   1.110e-08    -7.828    -7.955    -0.127     -3.59
   H2O             5.551e+01   9.974e-01     1.744    -0.001     0.000     18.07
Al            9.453e-06
   Al(OH)2+        4.546e-06   3.503e-06    -5.342    -5.456    -0.113     (0)  
   Al(OH)4-        1.548e-06   1.193e-06    -5.810    -5.923    -0.113     (0)  
   AlSO4+          1.154e-06   8.891e-07    -5.938    -6.051    -0.113     (0)  
   AlOH+2          1.145e-06   4.037e-07    -5.941    -6.394    -0.453    -26.52
   Al(OH)3         5.558e-07   5.716e-07    -6.255    -6.243     0.012     (0)  
   Al(SO4)2-       2.795e-07   2.154e-07    -6.554    -6.667    -0.113     (0)  
   Al+3            2.250e-07   3.670e-08    -6.648    -7.435    -0.788    -41.65
   AlHSO4+2        2.014e-13   7.102e-14   -12.696   -13.149    -0.453     (0)  
C(-4)         0.000e+00
   CH4             0.000e+00   0.000e+00  -104.389  -104.377     0.012     32.22
C(4)          6.876e-02
   CO2             3.648e-02   3.752e-02    -1.438    -1.426     0.012     30.26
   HCO3-           2.379e-02   1.848e-02    -1.624    -1.733    -0.110     25.15
   MnHCO3+         6.101e-03   4.702e-03    -2.215    -2.328    -0.113     (0)  
   CaHCO3+         1.045e-03   8.118e-04    -2.981    -3.091    -0.110      9.97
   MgHCO3+         9.800e-04   7.552e-04    -3.009    -3.122    -0.113      5.77
   MnCO3           2.121e-04   2.182e-04    -3.673    -3.661     0.012     (0)  
   NaHCO3          1.261e-04   1.297e-04    -3.899    -3.887     0.012     29.13
   ZnHCO3+         7.650e-06   5.895e-06    -5.116    -5.230    -0.113     (0)  
   CaCO3           5.412e-06   5.565e-06    -5.267    -5.255     0.012    -14.60
   MgCO3           3.118e-06   3.206e-06    -5.506    -5.494     0.012    -17.09
   CO3-2           2.644e-06   9.619e-07    -5.578    -6.017    -0.439     -2.76
   ZnCO3           4.730e-07   4.864e-07    -6.325    -6.313     0.012     (0)  
   NaCO3-          1.632e-07   1.258e-07    -6.787    -6.900    -0.113     -1.96
   Zn(CO3)2-2      2.836e-08   1.000e-08    -7.547    -8.000    -0.453     (0)  
   FeHCO3+         1.930e-10   1.487e-10    -9.715    -9.828    -0.113     (0)  
   FeCO3           1.806e-12   1.857e-12   -11.743   -11.731     0.012     (0)  
Ca            1.492e-02
   Ca+2            9.310e-03   3.444e-03    -2.031    -2.463    -0.432    -17.50
   CaSO4           4.562e-03   4.691e-03    -2.341    -2.329     0.012      7.50
   CaHCO3+         1.045e-03   8.118e-04    -2.981    -3.091    -0.110      9.97
   CaCO3           5.412e-06   5.565e-06    -5.267    -5.255     0.012    -14.60
   CaHSO4+         3.605e-08   2.778e-08    -7.443    -7.556    -0.113     (0)  
   CaOH+           8.212e-10   6.329e-10    -9.086    -9.199    -0.113     (0)  
Cl            9.680e-03
   Cl-             9.571e-03   7.177e-03    -2.019    -2.144    -0.125     18.35
   MnCl+           1.083e-04   8.349e-05    -3.965    -4.078    -0.113      6.55
   MnCl2           2.544e-07   2.616e-07    -6.595    -6.582     0.012     (0)  
   ZnCl+           6.353e-08   4.896e-08    -7.197    -7.310    -0.113     -1.51
   MnCl3-          6.710e-10   5.171e-10    -9.173    -9.286    -0.113     (0)  
   ZnCl2           3.578e-10   3.680e-10    -9.446    -9.434     0.012     24.06
   ZnCl3-          3.845e-12   2.963e-12   -11.415   -11.528    -0.113     54.00
   FeCl+           1.035e-12   7.974e-13   -11.985   -12.098    -0.113     (0)  
   FeCl+2          3.523e-14   1.242e-14   -13.453   -13.906    -0.453     (0)  
   ZnCl4-2         3.023e-14   1.066e-14   -13.520   -13.972    -0.453     88.82
   FeCl2+          5.168e-16   3.983e-16   -15.287   -15.400    -0.113     (0)  
   FeCl3           2.780e-19   2.859e-19   -18.556   -18.544     0.012     (0)  
Cu(1)         1.652e-18
   Cu+             1.652e-18   1.202e-18   -17.782   -17.920    -0.138     (0)  
Cu(2)         7.171e-11
   Cu+2            4.506e-11   1.708e-11   -10.346   -10.767    -0.421    -23.39
   CuSO4           2.598e-11   2.672e-11   -10.585   -10.573     0.012     (0)  
   Cu(OH)2         4.255e-13   4.375e-13   -12.371   -12.359     0.012     (0)  
   CuOH+           2.504e-13   1.891e-13   -12.601   -12.723    -0.122     (0)  
   Cu(OH)3-        3.788e-20   2.919e-20   -19.422   -19.535    -0.113     (0)  
   Cu(OH)4-2       1.829e-26   6.449e-27   -25.738   -26.190    -0.453     (0)  
Fe(2)         5.147e-10
   Fe+2            2.123e-10   8.048e-11    -9.673   -10.094    -0.421    -20.99
   FeHCO3+         1.930e-10   1.487e-10    -9.715    -9.828    -0.113     (0)  
   FeSO4           1.066e-10   1.096e-10    -9.972    -9.960     0.012     (0)  
   FeCO3           1.806e-12   1.857e-12   -11.743   -11.731     0.012     (0)  
   FeCl+           1.035e-12   7.974e-13   -11.985   -12.098    -0.113     (0)  
   FeOH+           3.657e-14   2.818e-14   -13.437   -13.550    -0.113     (0)  
   FeHSO4+         8.424e-16   6.492e-16   -15.074   -15.188    -0.113     (0)  
   Fe(HS)2         0.000e+00   0.000e+00  -204.857  -204.844     0.012     (0)  
   Fe(HS)3-        0.000e+00   0.000e+00  -304.544  -304.658    -0.113     (0)  
Fe(3)         2.170e-07
   Fe(OH)2+        1.949e-07   1.502e-07    -6.710    -6.823    -0.113     (0)  
   Fe(OH)3         2.084e-08   2.143e-08    -7.681    -7.669     0.012     (0)  
   FeOH+2          1.162e-09   4.097e-10    -8.935    -9.388    -0.453     (0)  
   Fe(OH)4-        2.808e-11   2.164e-11   -10.552   -10.665    -0.113     (0)  
   FeSO4+          6.247e-12   4.814e-12   -11.204   -11.318    -0.113     (0)  
   Fe(SO4)2-       1.047e-12   8.068e-13   -11.980   -12.093    -0.113     (0)  
   Fe+3            3.514e-13   5.731e-14   -12.454   -13.242    -0.788     (0)  
   FeCl+2          3.523e-14   1.242e-14   -13.453   -13.906    -0.453     (0)  
   FeCl2+          5.168e-16   3.983e-16   -15.287   -15.400    -0.113     (0)  
   Fe2(OH)2+4      2.922e-16   4.518e-18   -15.534   -17.345    -1.811     (0)  
   FeHSO4+2        3.293e-17   1.161e-17   -16.482   -16.935    -0.453     (0)  
   FeCl3           2.780e-19   2.859e-19   -18.556   -18.544     0.012     (0)  
   Fe3(OH)4+5      9.572e-20   1.418e-22   -19.019   -21.848    -2.829     (0)  
H(0)          2.009e-35
   H2              1.005e-35   1.033e-35   -34.998   -34.986     0.012     28.61
K             2.038e-04
   K+              1.936e-04   1.452e-04    -3.713    -3.838    -0.125      9.24
   KSO4-           1.014e-05   7.816e-06    -4.994    -5.107    -0.113     (0)  
   KOH             5.422e-13   5.575e-13   -12.266   -12.254     0.012     (0)  
Mg            1.610e-02
   Mg+2            9.016e-03   3.493e-03    -2.045    -2.457    -0.412    -20.57
   MgSO4           6.100e-03   6.273e-03    -2.215    -2.203     0.012      5.84
   MgHCO3+         9.800e-04   7.552e-04    -3.009    -3.122    -0.113      5.77
   MgCO3           3.118e-06   3.206e-06    -5.506    -5.494     0.012    -17.09
   MgOH+           1.822e-08   1.404e-08    -7.739    -7.853    -0.113     (0)  
Mn(2)         1.774e-02
   Mn+2            7.532e-03   2.855e-03    -2.123    -2.544    -0.421    -15.89
   MnHCO3+         6.101e-03   4.702e-03    -2.215    -2.328    -0.113     (0)  
   MnSO4           3.782e-03   3.890e-03    -2.422    -2.410     0.012      4.99
   MnCO3           2.121e-04   2.182e-04    -3.673    -3.661     0.012     (0)  
   MnCl+           1.083e-04   8.349e-05    -3.965    -4.078    -0.113      6.55
   MnCl2           2.544e-07   2.616e-07    -6.595    -6.582     0.012     (0)  
   MnOH+           1.055e-07   8.126e-08    -6.977    -7.090    -0.113     (0)  
   MnCl3-          6.710e-10   5.171e-10    -9.173    -9.286    -0.113     (0)  
Mn(3)         6.867e-18
   Mn+3            6.867e-18   6.580e-19   -17.163   -18.182    -1.019     (0)  
Na            9.578e-03
   Na+             9.102e-03   7.021e-03    -2.041    -2.154    -0.113     -0.95
   NaSO4-          3.498e-04   2.696e-04    -3.456    -3.569    -0.113     17.39
   NaHCO3          1.261e-04   1.297e-04    -3.899    -3.887     0.012     29.13
   NaCO3-          1.632e-07   1.258e-07    -6.787    -6.900    -0.113     -1.96
   NaOH            7.577e-21   7.791e-21   -20.121   -20.108     0.012     (0)  
O(0)          7.558e-23
   O2              3.779e-23   3.886e-23   -22.423   -22.411     0.012     30.40
S(-2)         0.000e+00
   H2S             0.000e+00   0.000e+00  -100.966  -100.954     0.012     37.16
   HS-             0.000e+00   0.000e+00  -101.723  -101.850    -0.127     20.90
   S-2             0.000e+00   0.000e+00  -108.271  -108.723    -0.452     (0)  
   Fe(HS)2         0.000e+00   0.000e+00  -204.857  -204.844     0.012     (0)  
   Fe(HS)3-        0.000e+00   0.000e+00  -304.544  -304.658    -0.113     (0)  
S(6)          3.674e-02
   SO4-2           2.193e-02   7.660e-03    -1.659    -2.116    -0.457     16.12
   MgSO4           6.100e-03   6.273e-03    -2.215    -2.203     0.012      5.84
   CaSO4           4.562e-03   4.691e-03    -2.341    -2.329     0.012      7.50
   MnSO4           3.782e-03   3.890e-03    -2.422    -2.410     0.012      4.99
   NaSO4-          3.498e-04   2.696e-04    -3.456    -3.569    -0.113     17.39
   KSO4-           1.014e-05   7.816e-06    -4.994    -5.107    -0.113     (0)  
   ZnSO4           4.426e-06   4.551e-06    -5.354    -5.342     0.012     (0)  
   AlSO4+          1.154e-06   8.891e-07    -5.938    -6.051    -0.113     (0)  
   HSO4-           8.706e-07   6.709e-07    -6.060    -6.173    -0.113     35.46
   Zn(SO4)2-2      8.036e-07   2.834e-07    -6.095    -6.548    -0.453     (0)  
   Al(SO4)2-       2.795e-07   2.154e-07    -6.554    -6.667    -0.113     (0)  
   CaHSO4+         3.605e-08   2.778e-08    -7.443    -7.556    -0.113     (0)  
   FeSO4           1.066e-10   1.096e-10    -9.972    -9.960     0.012     (0)  
   CuSO4           2.598e-11   2.672e-11   -10.585   -10.573     0.012     (0)  
   FeSO4+          6.247e-12   4.814e-12   -11.204   -11.318    -0.113     (0)  
   Fe(SO4)2-       1.047e-12   8.068e-13   -11.980   -12.093    -0.113     (0)  
   AlHSO4+2        2.014e-13   7.102e-14   -12.696   -13.149    -0.453     (0)  
   FeHSO4+         8.424e-16   6.492e-16   -15.074   -15.188    -0.113     (0)  
   FeHSO4+2        3.293e-17   1.161e-17   -16.482   -16.935    -0.453     (0)  
Zn            2.062e-05
   ZnHCO3+         7.650e-06   5.895e-06    -5.116    -5.230    -0.113     (0)  
   Zn+2            7.174e-06   2.534e-06    -5.144    -5.596    -0.452    -23.09
   ZnSO4           4.426e-06   4.551e-06    -5.354    -5.342     0.012     (0)  
   Zn(SO4)2-2      8.036e-07   2.834e-07    -6.095    -6.548    -0.453     (0)  
   ZnCO3           4.730e-07   4.864e-07    -6.325    -6.313     0.012     (0)  
   ZnCl+           6.353e-08   4.896e-08    -7.197    -7.310    -0.113     -1.51
   Zn(CO3)2-2      2.836e-08   1.000e-08    -7.547    -8.000    -0.453     (0)  
   ZnOH+           3.993e-09   3.077e-09    -8.399    -8.512    -0.113     (0)  
[...]
   Zn(CO3)2-2      2.865e-08   8.993e-09    -7.543    -8.046    -0.503     (0)  
   ZnCl+           1.698e-08   1.271e-08    -7.770    -7.896    -0.126     -1.43
   ZnOH+           1.381e-08   1.034e-08    -7.860    -7.986    -0.126     (0)  
   Zn(OH)2         1.545e-09   1.614e-09    -8.811    -8.792     0.019     (0)  
   ZnCl2           8.677e-11   9.066e-11   -10.062   -10.043     0.019     24.06
   ZnCl3-          9.259e-13   6.931e-13   -12.033   -12.159    -0.126     54.08
   Zn(OH)3-        9.278e-14   6.945e-14   -13.033   -13.158    -0.126     (0)  
   ZnCl4-2         7.539e-15   2.367e-15   -14.123   -14.626    -0.503     89.14
   Zn(OH)4-2       4.769e-19   1.497e-19   -18.322   -18.825    -0.503     (0)  

------------------------------Saturation indices-------------------------------

	Phase               SI   log IAP   log K(298 K,   1 atm)

	Al(OH)3(a)       -0.00     10.80   10.80  Al(OH)3
	AlOHSO4          -3.12     -5.32   -2.20  AlOHSO4
	Alunite           4.81      3.41   -1.40  KAl3(SO4)2(OH)6
	Anhydrite        -0.36     -4.58   -4.22  CaSO4
	Aragonite        -0.14     -8.48   -8.34  CaCO3
	Calcite          -0.00     -8.48   -8.48  CaCO3
	CH4(g)          -21.57    -24.42   -2.84  CH4
	CO2(g)           -1.89     -3.35   -1.46  CO2	 Pressure   0.0 atm, phi 1.000.
	Dolomite          0.28    -16.81  -17.09  CaMg(CO3)2
	Fe(OH)3           0.00      4.89    4.89  Fe(OH)3
	Fe(OH)3(a)        0.00      4.89    4.89  Fe(OH)3
	FeS(ppt)        -11.79    -15.70   -3.92  FeS
	Gibbsite          2.69     10.80    8.11  Al(OH)3
	Goethite          5.89      4.89   -1.00  FeOOH
	Gypsum           -0.00     -4.58   -4.58  CaSO4:2H2O
	H2(g)           -11.41    -14.52   -3.10  H2
	H2O(g)           -1.50     -0.00    1.50  H2O
	H2S(g)          -19.94    -27.93   -7.99  H2S
	Halite           -5.93     -4.34    1.58  NaCl
	Hausmannite     -17.75     43.28   61.03  Mn3O4
	Hematite         13.79      9.79   -4.01  Fe2O3
	Jarosite-K       -5.11    -14.32   -9.21  KFe3(SO4)2(OH)6
	Mackinawite     -11.06    -15.70   -4.65  FeS
	Manganite        -9.02     16.32   25.34  MnOOH
	Melanterite      -1.69     -3.90   -2.21  FeSO4:7H2O
	MnO2            -19.38     22.00   41.38  MnO2
	O2(g)           -60.46    -63.35   -2.89  O2
	Pyrite          -13.79    -32.27  -18.48  FeS2
	Pyrochroite      -4.56     10.64   15.20  Mn(OH)2
	Pyrolusite      -19.38     22.00   41.38  MnO2:H2O
	Rhodochrosite     1.74     -9.39  -11.13  MnCO3
	Siderite          3.09     -7.80  -10.89  FeCO3
	Smithsonite      -1.92    -11.92  -10.00  ZnCO3
	Sphalerite       -8.21    -19.82  -11.62  ZnS
	Sulfur          -14.51     -9.63    4.88  S
	Zn(OH)2(e)       -3.39      8.11   11.50  Zn(OH)2



Cell 5.

Using solution 5.	Solution after simulation 1.
Using surface 5.	
Using pure phase assemblage 5.	Pure-phase assemblage after simulation 1.

-------------------------------Phase assemblage--------------------------------

                                                      Moles in assemblage
Phase               SI  log IAP  log K(T, P)   Initial       Final       Delta

Al(OH)3(a)       -0.00    10.80     10.80    4.457e-05   4.605e-05   1.484e-06
AlOHSO4          -2.82    -5.02     -2.20    0.000e+00           0   0.000e+00
Calcite           0.00    -8.48     -8.48    5.870e-02   5.787e-02  -8.294e-04
Fe(OH)3           0.00     4.89      4.89    8.198e-01   8.198e-01  -5.784e-05
Gypsum           -0.00    -4.58     -4.58    7.943e-02   8.023e-02   8.017e-04
MnO2            -19.20    22.18     41.38    0.000e+00           0   0.000e+00

------------------------------Surface composition------------------------------

Surf          
	  3.314e-02  Surface charge, eq
	  8.200e-02  sigma, C/m**2
	  6.415e-02  psi, V
	 -2.497e+00  -F*psi/RT
	  8.232e-02  exp(-F*psi/RT)
	  6.000e+02  specific area, m**2/g
	  3.900e+04  m**2 for   6.500e+01 g


Surf          
	  1.500e-01  moles
	                                   Mole                     Log
	Species               Moles    Fraction    Molality    Molality

	SurfOH            9.165e-02       0.611   9.172e-02      -1.038
	SurfOMn+          3.023e-02       0.202   3.026e-02      -1.519
	SurfOH2+          1.526e-02       0.102   1.527e-02      -1.816
	SurfO-            1.261e-02       0.084   1.262e-02      -1.899
	SurfOCu+          2.242e-04       0.001   2.243e-04      -3.649
	SurfOZn+          2.980e-05       0.000   2.982e-05      -4.525

-----------------------------Solution composition------------------------------

	Elements           Molality       Moles

	Al                1.893e-05   1.891e-05
	C                 1.153e-02   1.152e-02
	Ca                1.037e-02   1.037e-02
	Cl                9.647e-03   9.640e-03
	Cu                5.753e-06   5.748e-06
	Fe                5.324e-02   5.320e-02
	K                 2.031e-04   2.029e-04
	Mg                1.604e-02   1.603e-02
	Mn                1.001e-03   1.000e-03
	Na                9.546e-03   9.538e-03
	S                 8.247e-02   8.241e-02
	Zn                3.502e-07   3.499e-07

----------------------------Description of solution----------------------------

                                       pH  =   6.984      Charge balance
                                       pe  =  -0.987      Adjusted to redox equilibrium
       Specific Conductance (uS/cm, 25 oC) = 8538
                          Density (g/cm3)  =   1.00963
                        Activity of water  =   0.997
                           Ionic strength  =   1.907e-01
                       Mass of water (kg)  =   9.992e-01
                 Total alkalinity (eq/kg)  =   1.116e-02
                       Total CO2 (mol/kg)  =   1.153e-02
                      Temperature (deg C)  =  25.00
                  Electrical balance (eq)  =  -1.462e-02
 Percent error, 100*(Cat-|An|)/(Cat+|An|)  =  -7.12
                               Iterations  =   5
                                  Total H  = 1.109355e+02
                                  Total O  = 5.582602e+01

----------------------------Distribution of species----------------------------

                                               Log       Log       Log    mole V
   Species          Molality    Activity  Molality  Activity     Gamma   cm3/mol

   OH-             1.356e-07   9.635e-08    -6.868    -7.016    -0.148     -3.40
   H+              1.298e-07   1.037e-07    -6.887    -6.984    -0.097      0.00
   H2O             5.551e+01   9.974e-01     1.744    -0.001     0.000     18.07
Al            1.893e-05
   Al(OH)4-        1.752e-05   1.311e-05    -4.756    -4.882    -0.126     (0)  
   Al(OH)3         6.927e-07   7.238e-07    -6.159    -6.140     0.019     (0)  
   Al(OH)2+        6.827e-07   5.110e-07    -6.166    -6.292    -0.126     (0)  
   AlOH+2          2.161e-08   6.781e-09    -7.665    -8.169    -0.503    -26.19
   AlSO4+          4.226e-09   3.163e-09    -8.374    -8.500    -0.126     (0)  
   Al(SO4)2-       1.882e-09   1.409e-09    -8.725    -8.851    -0.126     (0)  
   Al+3            5.325e-10   7.102e-11    -9.274   -10.149    -0.875    -40.92
   AlHSO4+2        9.273e-17   2.910e-17   -16.033   -16.536    -0.503     (0)  
C(-4)         2.265e-27
   CH4             2.265e-27   2.367e-27   -26.645   -26.626     0.019     32.22
C(4)          1.153e-02
   HCO3-           5.223e-03   3.912e-03    -2.282    -2.408    -0.126     25.38
   FeHCO3+         4.647e-03   3.478e-03    -2.333    -2.459    -0.126     (0)  
   CO2             8.756e-04   9.149e-04    -3.058    -3.039     0.019     30.26
   FeCO3           3.609e-04   3.771e-04    -3.443    -3.424     0.019     (0)  
   MgHCO3+         1.607e-04   1.203e-04    -3.794    -3.920    -0.126      5.85
   CaHCO3+         1.248e-04   9.350e-05    -3.904    -4.029    -0.126     10.05
   MnHCO3+         7.710e-05   5.770e-05    -4.113    -4.239    -0.126     (0)  
   NaHCO3          2.484e-05   2.596e-05    -4.605    -4.586     0.019     29.13
   MnCO3           2.225e-05   2.325e-05    -4.653    -4.634     0.019     (0)  
   CO3-2           5.618e-06   1.768e-06    -5.250    -5.752    -0.502     -2.40
   CaCO3           5.326e-06   5.565e-06    -5.274    -5.255     0.019    -14.60
   MgCO3           4.244e-06   4.434e-06    -5.372    -5.353     0.019    -17.09
   NaCO3-          2.919e-07   2.185e-07    -6.535    -6.661    -0.126     -1.53
   ZnHCO3+         2.635e-08   1.972e-08    -7.579    -7.705    -0.126     (0)  
   ZnCO3           1.352e-08   1.413e-08    -7.869    -7.850     0.019     (0)  
   Zn(CO3)2-2      1.702e-09   5.342e-10    -8.769    -9.272    -0.503     (0)  
Ca            1.037e-02
   Ca+2            5.754e-03   1.873e-03    -2.240    -2.727    -0.487    -17.36
   CaSO4           4.490e-03   4.692e-03    -2.348    -2.329     0.019      7.50
   CaHCO3+         1.248e-04   9.350e-05    -3.904    -4.029    -0.126     10.05
   CaCO3           5.326e-06   5.565e-06    -5.274    -5.255     0.019    -14.60
   CaHSO4+         4.275e-09   3.200e-09    -8.369    -8.495    -0.126     (0)  
   CaOH+           3.994e-09   2.989e-09    -8.399    -8.524    -0.126     (0)  
Cl            9.647e-03
   Cl-             9.529e-03   6.818e-03    -2.021    -2.166    -0.145     18.43
   FeCl+           1.118e-04   8.367e-05    -3.952    -4.077    -0.126     (0)  
   MnCl+           6.142e-06   4.597e-06    -5.212    -5.338    -0.126      6.63
   MnCl2           1.309e-08   1.368e-08    -7.883    -7.864     0.019     (0)  
   ZnCl+           9.819e-10   7.349e-10    -9.008    -9.134    -0.126     -1.43
   MnCl3-          3.432e-11   2.569e-11   -10.464   -10.590    -0.126     (0)  
   ZnCl2           5.021e-12   5.247e-12   -11.299   -11.280     0.019     24.06
   ZnCl3-          5.362e-14   4.013e-14   -13.271   -13.396    -0.126     54.08
   ZnCl4-2         4.371e-16   1.371e-16   -15.359   -15.863    -0.503     89.15
   FeCl+2          5.746e-17   1.803e-17   -16.241   -16.744    -0.503     (0)  
   FeCl2+          7.336e-19   5.491e-19   -18.135   -18.260    -0.126     (0)  
   FeCl3           3.583e-22   3.743e-22   -21.446   -21.427     0.019     (0)  
Cu(1)         5.747e-06
   Cu+             5.747e-06   3.940e-06    -5.241    -5.405    -0.164     (0)  
Cu(2)         5.997e-09
   Cu+2            2.332e-09   7.744e-10    -8.632    -9.111    -0.479    -23.06
   CuSO4           2.131e-09   2.227e-09    -8.671    -8.652     0.019     (0)  
   Cu(OH)2         1.431e-09   1.495e-09    -8.844    -8.825     0.019     (0)  
   CuOH+           1.031e-10   7.444e-11    -9.987   -10.128    -0.142     (0)  
   Cu(OH)3-        1.157e-15   8.661e-16   -14.937   -15.062    -0.126     (0)  
   Cu(OH)4-2       5.295e-21   1.661e-21   -20.276   -20.780    -0.503     (0)  
Fe(2)         5.324e-02
   Fe+2            2.677e-02   8.890e-03    -1.572    -2.051    -0.479    -20.66
   FeSO4           2.131e-02   2.227e-02    -1.671    -1.652     0.019     (0)  
   FeHCO3+         4.647e-03   3.478e-03    -2.333    -2.459    -0.126     (0)  
   FeCO3           3.609e-04   3.771e-04    -3.443    -3.424     0.019     (0)  
   FeCl+           1.118e-04   8.367e-05    -3.952    -4.077    -0.126     (0)  
   FeOH+           3.611e-05   2.703e-05    -4.442    -4.568    -0.126     (0)  
   FeHSO4+         2.029e-08   1.518e-08    -7.693    -7.819    -0.126     (0)  
   Fe(HS)2         3.622e-40   3.784e-40   -39.441   -39.422     0.019     (0)  
   Fe(HS)3-        0.000e+00   0.000e+00   -60.420   -60.546    -0.126     (0)  
Fe(3)         4.390e-08
   Fe(OH)2+        2.312e-08   1.730e-08    -7.636    -7.762    -0.126     (0)  
   Fe(OH)3         2.051e-08   2.143e-08    -7.688    -7.669     0.019     (0)  
   Fe(OH)4-        2.510e-10   1.879e-10    -9.600    -9.726    -0.126     (0)  
   FeOH+2          1.732e-11   5.435e-12   -10.761   -11.265    -0.503     (0)  
   FeSO4+          1.807e-14   1.352e-14   -13.743   -13.869    -0.126     (0)  
   Fe(SO4)2-       5.567e-15   4.167e-15   -14.254   -14.380    -0.126     (0)  
   Fe+3            6.566e-16   8.757e-17   -15.183   -16.058    -0.875     (0)  
   FeCl+2          5.746e-17   1.803e-17   -16.241   -16.744    -0.503     (0)  
   FeCl2+          7.336e-19   5.491e-19   -18.135   -18.260    -0.126     (0)  
   Fe2(OH)2+4      8.204e-20   7.952e-22   -19.086   -21.100    -2.014     (0)  
   FeHSO4+2        1.197e-20   3.757e-21   -19.922   -20.425    -0.503     (0)  
   FeCl3           3.583e-22   3.743e-22   -21.446   -21.427     0.019     (0)  
   Fe3(OH)4+5      4.025e-24   2.875e-27   -23.395   -26.541    -3.146     (0)  
H(0)          1.371e-15
   H2              6.855e-16   7.163e-16   -15.164   -15.145     0.019     28.61
K             2.031e-04
   K+              1.855e-04   1.327e-04    -3.732    -3.877    -0.145      9.33
   KSO4-           1.755e-05   1.314e-05    -4.756    -4.882    -0.126     (0)  
   KOH             4.235e-12   4.425e-12   -11.373   -11.354     0.019     (0)  
Mg            1.604e-02
   MgSO4           8.303e-03   8.676e-03    -2.081    -2.062     0.019      5.84
   Mg+2            7.576e-03   2.628e-03    -2.121    -2.580    -0.460    -20.42
   MgHCO3+         1.607e-04   1.203e-04    -3.794    -3.920    -0.126      5.85
   MgCO3           4.244e-06   4.434e-06    -5.372    -5.353     0.019    -17.09
   MgOH+           1.226e-07   9.172e-08    -6.912    -7.038    -0.126     (0)  
Mn(2)         1.001e-03
   Mn+2            4.985e-04   1.655e-04    -3.302    -3.781    -0.479    -15.56
   MnSO4           3.967e-04   4.145e-04    -3.402    -3.382     0.019      4.99
   MnHCO3+         7.710e-05   5.770e-05    -4.113    -4.239    -0.126     (0)  
   MnCO3           2.225e-05   2.325e-05    -4.653    -4.634     0.019     (0)  
   MnCl+           6.142e-06   4.597e-06    -5.212    -5.338    -0.126      6.63
   MnOH+           5.465e-08   4.090e-08    -7.262    -7.388    -0.126     (0)  
   MnCl2           1.309e-08   1.368e-08    -7.883    -7.864     0.019     (0)  
   MnCl3-          3.432e-11   2.569e-11   -10.464   -10.590    -0.126     (0)  
Mn(3)         7.160e-30
   Mn+3            7.160e-30   5.276e-31   -29.145   -30.278    -1.133     (0)  
Na            9.546e-03
   Na+             8.895e-03   6.636e-03    -2.051    -2.178    -0.127     -0.89
   NaSO4-          6.259e-04   4.684e-04    -3.204    -3.329    -0.126     17.72
   NaHCO3          2.484e-05   2.596e-05    -4.605    -4.586     0.019     29.13
   NaCO3-          2.919e-07   2.185e-07    -6.535    -6.661    -0.126     -1.53
   NaOH            6.119e-20   6.394e-20   -19.213   -19.194     0.019     (0)  
O(0)          0.000e+00
   O2              0.000e+00   0.000e+00   -62.111   -62.092     0.019     30.40
S(-2)         1.572e-23
   HS-             9.723e-24   6.911e-24   -23.012   -23.160    -0.148     20.98
   H2S             6.000e-24   6.269e-24   -23.222   -23.203     0.019     37.16
   S-2             2.657e-29   8.045e-30   -28.576   -29.094    -0.519     (0)  
   Fe(HS)2         3.622e-40   3.784e-40   -39.441   -39.422     0.019     (0)  
   Fe(HS)3-        0.000e+00   0.000e+00   -60.420   -60.546    -0.126     (0)  
S(6)          8.247e-02
   SO4-2           4.733e-02   1.408e-02    -1.325    -1.851    -0.526     16.49
   FeSO4           2.131e-02   2.227e-02    -1.671    -1.652     0.019     (0)  
   MgSO4           8.303e-03   8.676e-03    -2.081    -2.062     0.019      5.84
   CaSO4           4.490e-03   4.692e-03    -2.348    -2.329     0.019      7.50
   NaSO4-          6.259e-04   4.684e-04    -3.204    -3.329    -0.126     17.72
   MnSO4           3.967e-04   4.145e-04    -3.402    -3.382     0.019      4.99
   KSO4-           1.755e-05   1.314e-05    -4.756    -4.882    -0.126     (0)  
   HSO4-           1.898e-07   1.421e-07    -6.722    -6.848    -0.126     35.54
   ZnSO4           1.265e-07   1.322e-07    -6.898    -6.879     0.019     (0)  
   Zn(SO4)2-2      4.824e-08   1.514e-08    -7.317    -7.820    -0.503     (0)  
   FeHSO4+         2.029e-08   1.518e-08    -7.693    -7.819    -0.126     (0)  
   CaHSO4+         4.275e-09   3.200e-09    -8.369    -8.495    -0.126     (0)  
   AlSO4+          4.226e-09   3.163e-09    -8.374    -8.500    -0.126     (0)  
   CuSO4           2.131e-09   2.227e-09    -8.671    -8.652     0.019     (0)  
   Al(SO4)2-       1.882e-09   1.409e-09    -8.725    -8.851    -0.126     (0)  
   FeSO4+          1.807e-14   1.352e-14   -13.743   -13.869    -0.126     (0)  
   Fe(SO4)2-       5.567e-15   4.167e-15   -14.254   -14.380    -0.126     (0)  
   AlHSO4+2        9.273e-17   2.910e-17   -16.033   -16.536    -0.503     (0)  
   FeHSO4+2        1.197e-20   3.757e-21   -19.922   -20.425    -0.503     (0)  
Zn            3.502e-07
   Zn+2            1.323e-07   4.005e-08    -6.879    -7.397    -0.519    -22.76
   ZnSO4           1.265e-07   1.322e-07    -6.898    -6.879     0.019     (0)  
   Zn(SO4)2-2      4.824e-08   1.514e-08    -7.317    -7.820    -0.503     (0)  
   ZnHCO3+         2.635e-08   1.972e-08    -7.579    -7.705    -0.126     (0)  
   ZnCO3           1.352e-08   1.413e-08    -7.869    -7.850     0.019     (0)  
   Zn(CO3)2-2      1.702e-09   5.342e-10    -8.769    -9.272    -0.503     (0)  
   ZnCl+           9.819e-10   7.349e-10    -9.008    -9.134    -0.126     -1.43
   ZnOH+           5.641e-10   4.222e-10    -9.249    -9.375    -0.126     (0)  
   Zn(OH)2         4.460e-11   4.660e-11   -10.351   -10.332     0.019     (0)  
   ZnCl2           5.021e-12   5.247e-12   -11.299   -11.280     0.019     24.06
   ZnCl3-          5.362e-14   4.013e-14   -13.271   -13.396    -0.126     54.08
   Zn(OH)3-        1.893e-15   1.417e-15   -14.723   -14.849    -0.126     (0)  
   ZnCl4-2         4.371e-16   1.371e-16   -15.359   -15.863    -0.503     89.15
   Zn(OH)4-2       6.879e-21   2.158e-21   -20.162   -20.666    -0.503     (0)  

------------------------------Saturation indices-------------------------------

	Phase               SI   log IAP   log K(298 K,   1 atm)

	Al(OH)3(a)       -0.00     10.80   10.80  Al(OH)3
	AlOHSO4          -2.82     -5.02   -2.20  AlOHSO4
	Alunite           5.27      3.87   -1.40  KAl3(SO4)2(OH)6
	Anhydrite        -0.36     -4.58   -4.22  CaSO4
	Aragonite        -0.14     -8.48   -8.34  CaCO3
	Calcite           0.00     -8.48   -8.48  CaCO3
	CH4(g)          -23.78    -26.63   -2.84  CH4
	CO2(g)           -1.58     -3.04   -1.46  CO2	 Pressure   0.0 atm, phi 1.000.
	Dolomite          0.28    -16.81  -17.09  CaMg(CO3)2
	Fe(OH)3           0.00      4.89    4.89  Fe(OH)3
	Fe(OH)3(a)        0.00      4.89    4.89  Fe(OH)3
	FeS(ppt)        -14.31    -18.23   -3.92  FeS
	Gibbsite          2.69     10.80    8.11  Al(OH)3
	Goethite          5.89      4.89   -1.00  FeOOH
	Gypsum           -0.00     -4.58   -4.58  CaSO4:2H2O
	H2(g)           -12.04    -15.14   -3.10  H2
	H2O(g)           -1.50     -0.00    1.50  H2O
	H2S(g)          -22.15    -30.14   -7.99  H2S
	Halite           -5.93     -4.34    1.58  NaCl
	Hausmannite     -18.48     42.55   61.03  Mn3O4
	Hematite         13.79      9.79   -4.01  Fe2O3
	Jarosite-K       -4.65    -13.86   -9.21  KFe3(SO4)2(OH)6
	Mackinawite     -13.58    -18.23   -4.65  FeS
	Manganite        -9.16     16.18   25.34  MnOOH
	Melanterite      -1.70     -3.91   -2.21  FeSO4:7H2O
	MnO2            -19.20     22.18   41.38  MnO2
	O2(g)           -59.20    -62.09   -2.89  O2
	Pyrite          -17.90    -36.38  -18.48  FeS2
	Pyrochroite      -5.02     10.18   15.20  Mn(OH)2
	Pyrolusite      -19.20     22.18   41.38  MnO2:H2O
	Rhodochrosite     1.60     -9.53  -11.13  MnCO3
	Siderite          3.09     -7.80  -10.89  FeCO3
	Smithsonite      -3.15    -13.15  -10.00  ZnCO3
	Sphalerite      -11.96    -23.57  -11.62  ZnS
	Sulfur          -16.09    -11.21    4.88  S
	Zn(OH)2(e)       -4.93      6.57   11.50  Zn(OH)2


------------------
End of simulation.
------------------

------------------------------------
Reading input data for simulation 2.
------------------------------------

-----------
End of run.
-----------

