   Input file: transport.dl
  Output file: transport.dl.out
Database file: ../database/phreeqc.dat

------------------
Reading data base.
------------------

	SOLUTION_MASTER_SPECIES
	SOLUTION_SPECIES
	PHASES
	EXCHANGE_MASTER_SPECIES
	EXCHANGE_SPECIES
	SURFACE_MASTER_SPECIES
	SURFACE_SPECIES
	RATES
	END
------------------------------------
Reading input data for simulation 1.
------------------------------------

	DATABASE ../database/phreeqc.dat
	knobs
		logfile
	PRINT
		status false
	SOLUTION 0
		ph	3.3
		temp	25
		units mmol/l
		Ca	11.6
		Mg	15.8
		Na	9.4
		K	0.2
		Fe	52.4
		Mn	1.34
		Al	10.5
		Cu	2.4
		Zn	0.33
		S(6)	100 	charge
		Cl	9.5
		C(4)	0.1	CO2(g)  -3.5
	SOLUTION 1-5
		ph	7.19
		temp	25
		units mmol/l
		O(0)	0.22
		Ca	1.2	charge
		Mg	0.37
		Na	0.96
		K	0.03
		Fe	3.5e-7	mol/l
		Mn	1.0e-7	mol/l
		Al	1.8e-6  mol/l
		Cu	1.5e-7	mol/l
		Zn	2.5e-7	mol/l
		S(6)	0.7
		Cl	0.48
		Alkalinity	2.3
	SURFACE 1-5
		diffuse_layer  1e-9  # takes 10 time longer, calculates diffuse layer composition
		SurfOH	0.15	600.	65.
	PURE_PHASES 1-5
		MnO2		0.0	0.045
		Fe(OH)3		0.0	0.73
		Calcite		0.0	0.14
		Gypsum 		0.0	0.0
		Al(OH)3(a)	0.0	0.0
		AlOHSO4		0.0	0.0
	USE PURE_PHASES none
	USE SURFACE none
	ADVECTION
		cells 		5
		shifts		25
		print_frequency	5
	SURFACE_MASTER_SPECIES
		Surf	SurfOH
	SURFACE_SPECIES
		SurfOH = SurfOH
		log_k	0.0
		SurfOH  + H+ = SurfOH2+
		log_k	7.29
		SurfOH = SurfO- + H+
		log_k	-8.93
		SurfOH + Cu+2 = SurfOCu+ + H+
		log_k	0.6
		SurfOH + Zn+2 = SurfOZn+ + H+
		log_k	-1.99
		SurfOH + Mn+2 = SurfOMn+ + H+
		log_k	-2.6
	PHASES
		Fe(OH)3
		Fe(OH)3 + 3 H+ = Fe+3 + 3 H2O                                                 
		log_k	4.891
		MnO2
		MnO2 + 4 H+ + 2 e- = Mn+2 + 2 H2O                                          
		log_k		41.380
		delta_h	-65.110 kcal
		Al(OH)3(a)
		Al(OH)3 + 3H+ = Al+3 + 3H2O 
		log_k		10.8
		delta_h	-26.5 kcal
		AlOHSO4
		AlOHSO4 + H+ = Al+3 + SO4-2 + H2O 
		log_k	-2.2
	END
-------------------------------------------
Beginning of initial solution calculations.
-------------------------------------------

Initial solution 0.	

-----------------------------Solution composition------------------------------

	Elements           Molality       Moles

	Al                1.065e-02   1.065e-02
	C(4)              1.047e-05   1.047e-05  Equilibrium with CO2(g)
	Ca                1.177e-02   1.177e-02
	Cl                9.640e-03   9.640e-03
	Cu                2.435e-03   2.435e-03
	Fe                5.317e-02   5.317e-02
	K                 2.029e-04   2.029e-04
	Mg                1.603e-02   1.603e-02
	Mn                1.360e-03   1.360e-03
	Na                9.538e-03   9.538e-03
	S(6)              1.018e-01   1.018e-01  Charge balance
	Zn                3.348e-04   3.348e-04

----------------------------Description of solution----------------------------

                                       pH  =   3.300    
                                       pe  =   4.000    
       Specific Conductance (uS/cm, 25 oC) = 9057
                          Density (g/cm3)  =   1.01164
                               Volume (L)  =   1.00948
                        Activity of water  =   0.997
                           Ionic strength  =   2.102e-01
                       Mass of water (kg)  =   1.000e+00
                 Total alkalinity (eq/kg)  =  -1.677e-03
                       Total CO2 (mol/kg)  =   1.047e-05
                      Temperature (deg C)  =  25.00
                  Electrical balance (eq)  =   5.613e-17
 Percent error, 100*(Cat-|An|)/(Cat+|An|)  =   0.00
                               Iterations  =  10
                                  Total H  = 1.110141e+02
                                  Total O  = 5.591342e+01

----------------------------Distribution of species----------------------------

                                               Log       Log       Log    mole V
   Species          Molality    Activity  Molality  Activity     Gamma   cm3/mol

   H+              6.299e-04   5.012e-04    -3.201    -3.300    -0.099      0.00
   OH-             2.865e-11   2.014e-11   -10.543   -10.696    -0.153     -3.48
   H2O             5.551e+01   9.972e-01     1.744    -0.001     0.000     18.07
Al            1.065e-02
   AlSO4+          6.768e-03   4.910e-03    -2.170    -2.309    -0.139     (0)  
   Al(SO4)2-       3.017e-03   2.189e-03    -2.520    -2.660    -0.139     (0)  
   Al+3            8.617e-04   1.101e-04    -3.065    -3.958    -0.893    -42.90
   AlOH+2          7.138e-06   2.177e-06    -5.146    -5.662    -0.516    -26.86
   AlHSO4+2        7.104e-07   2.182e-07    -6.149    -6.661    -0.513     (0)  
   Al(OH)2+        4.568e-08   3.394e-08    -7.340    -7.469    -0.129     (0)  
   Al(OH)3         9.480e-12   9.950e-12   -11.023   -11.002     0.021     (0)  
   Al(OH)4-        5.143e-14   3.731e-14   -13.289   -13.428    -0.139     (0)  
C(4)          1.047e-05
   CO2             1.044e-05   1.096e-05    -4.981    -4.960     0.021     30.26
   HCO3-           1.305e-08   9.699e-09    -7.884    -8.013    -0.129     25.78
   FeHCO3+         1.257e-08   9.357e-09    -7.901    -8.029    -0.128     (0)  
   CuHCO3+         2.310e-09   1.719e-09    -8.636    -8.765    -0.128     (0)  
   MgHCO3+         4.176e-10   2.984e-10    -9.379    -9.525    -0.146      5.72
   CaHCO3+         3.480e-10   2.623e-10    -9.458    -9.581    -0.123      9.88
   MnHCO3+         2.893e-10   2.128e-10    -9.539    -9.672    -0.133     (0)  
   NaHCO3          1.541e-10   1.617e-10    -9.812    -9.791     0.021     19.41
   ZnHCO3+         7.021e-11   5.227e-11   -10.154   -10.282    -0.128     (0)  
   CuCO3           1.643e-12   1.724e-12   -11.784   -11.763     0.021     (0)  
   FeCO3           2.001e-13   2.100e-13   -12.699   -12.678     0.021     (0)  
   MnCO3           1.691e-14   1.775e-14   -13.772   -13.751     0.021     (0)  
   ZnCO3           7.386e-15   7.752e-15   -14.132   -14.111     0.021     (0)  
   CaCO3           3.078e-15   3.231e-15   -14.512   -14.491     0.021    -14.60
   CO3-2           2.976e-15   9.075e-16   -14.526   -15.042    -0.516     -2.43
   MgCO3           2.170e-15   2.277e-15   -14.664   -14.643     0.021    -17.09
   NaCO3-          3.622e-17   2.691e-17   -16.441   -16.570    -0.129      0.27
   Cu(CO3)2-2      6.413e-24   1.970e-24   -23.193   -23.706    -0.513     (0)  
   Zn(CO3)2-2      4.897e-25   1.504e-25   -24.310   -24.823    -0.513     (0)  
Ca            1.177e-02
   Ca+2            6.685e-03   2.119e-03    -2.175    -2.674    -0.499    -17.19
   CaSO4           5.062e-03   5.313e-03    -2.296    -2.275     0.021      7.50
   CaHSO4+         2.351e-05   1.750e-05    -4.629    -4.757    -0.128     (0)  
   CaHCO3+         3.480e-10   2.623e-10    -9.458    -9.581    -0.123      9.88
   CaOH+           9.401e-13   6.998e-13   -12.027   -12.155    -0.128     (0)  
   CaCO3           3.078e-15   3.231e-15   -14.512   -14.491     0.021    -14.60
Cl            9.640e-03
   Cl-             8.835e-03   6.290e-03    -2.054    -2.201    -0.148     18.47
   CuCl2-          3.250e-04   2.322e-04    -3.488    -3.634    -0.146     (0)  
   FeCl+           1.125e-04   8.376e-05    -3.949    -4.077    -0.128     (0)  
   MnCl+           8.575e-06   6.308e-06    -5.067    -5.200    -0.133      6.66
   CuCl+           8.379e-06   5.988e-06    -5.077    -5.223    -0.146     (0)  
   CuCl3-2         7.908e-06   2.315e-06    -5.102    -5.635    -0.534     (0)  
   ZnCl+           1.014e-06   7.247e-07    -5.994    -6.140    -0.146     -1.56
   CuCl2           1.927e-08   2.023e-08    -7.715    -7.694     0.021     (0)  
   MnCl2           1.650e-08   1.732e-08    -7.783    -7.762     0.021     (0)  
   ZnCl2           4.547e-09   4.773e-09    -8.342    -8.321     0.021     24.06
   ZnCl3-          4.713e-11   3.368e-11   -10.327   -10.473    -0.146     54.11
   MnCl3-          4.078e-11   3.000e-11   -10.390   -10.523    -0.133     (0)  
   ZnOHCl          1.690e-11   1.774e-11   -10.772   -10.751     0.021     (0)  
   FeCl+2          5.978e-12   1.750e-12   -11.223   -11.757    -0.534     (0)  
   CuCl3-          6.316e-13   4.514e-13   -12.200   -12.345    -0.146     (0)  
   ZnCl4-2         3.627e-13   1.062e-13   -12.440   -12.974    -0.534     89.26
   FeCl2+          6.684e-14   4.917e-14   -13.175   -13.308    -0.133     (0)  
   CuCl4-2         4.861e-17   1.423e-17   -16.313   -16.847    -0.534     (0)  
   FeCl3           2.946e-17   3.092e-17   -16.531   -16.510     0.021     (0)  
Cu(1)         3.603e-04
   CuCl2-          3.250e-04   2.322e-04    -3.488    -3.634    -0.146     (0)  
   Cu+             2.745e-05   1.856e-05    -4.561    -4.731    -0.170     (0)  
   CuCl3-2         7.908e-06   2.315e-06    -5.102    -5.635    -0.534     (0)  
Cu(2)         2.075e-03
   Cu+2            1.096e-03   3.537e-04    -2.960    -3.451    -0.491    -23.77
   CuSO4           9.701e-04   1.018e-03    -3.013    -2.992     0.021     (0)  
   CuCl+           8.379e-06   5.988e-06    -5.077    -5.223    -0.146     (0)  
   CuCl2           1.927e-08   2.023e-08    -7.715    -7.694     0.021     (0)  
   CuOH+           9.848e-09   7.038e-09    -8.007    -8.153    -0.146     (0)  
   CuHCO3+         2.310e-09   1.719e-09    -8.636    -8.765    -0.128     (0)  
   Cu2(OH)2+2      7.057e-11   2.167e-11   -10.151   -10.664    -0.513     (0)  
   Cu(OH)2         2.787e-11   2.926e-11   -10.555   -10.534     0.021     (0)  
   CuCO3           1.643e-12   1.724e-12   -11.784   -11.763     0.021     (0)  
   CuCl3-          6.316e-13   4.514e-13   -12.200   -12.345    -0.146     (0)  
   CuCl4-2         4.861e-17   1.423e-17   -16.313   -16.847    -0.534     (0)  
   Cu(OH)3-        4.712e-21   3.508e-21   -20.327   -20.455    -0.128     (0)  
   Cu(CO3)2-2      6.413e-24   1.970e-24   -23.193   -23.706    -0.513     (0)  
   Cu(OH)4-2       4.534e-30   1.392e-30   -29.344   -29.856    -0.513     (0)  
Fe(2)         5.317e-02
   Fe+2            2.991e-02   9.648e-03    -1.524    -2.016    -0.491    -21.20
   FeSO4           2.304e-02   2.419e-02    -1.637    -1.616     0.021     (0)  
   FeCl+           1.125e-04   8.376e-05    -3.949    -4.077    -0.128     (0)  
   FeHSO4+         1.070e-04   7.968e-05    -3.970    -4.099    -0.128     (0)  
   FeHCO3+         1.257e-08   9.357e-09    -7.901    -8.029    -0.128     (0)  
   FeOH+           8.253e-09   6.070e-09    -8.083    -8.217    -0.133     (0)  
   FeCO3           2.001e-13   2.100e-13   -12.699   -12.678     0.021     (0)  
   Fe(OH)2         9.794e-17   1.028e-16   -16.009   -15.988     0.021     (0)  
   Fe(OH)3-        1.033e-23   7.599e-24   -22.986   -23.119    -0.133     (0)  
Fe(3)         3.120e-09
   FeSO4+          1.936e-09   1.424e-09    -8.713    -8.846    -0.133     (0)  
   Fe(SO4)2-       5.901e-10   4.393e-10    -9.229    -9.357    -0.128     (0)  
   FeOH+2          4.043e-10   1.184e-10    -9.393    -9.927    -0.534     (0)  
   Fe(OH)2+        1.049e-10   7.798e-11    -9.979   -10.108    -0.129     (0)  
   Fe+3            7.209e-11   9.214e-12   -10.142   -11.036    -0.893     (0)  
   FeHSO4+2        6.223e-12   1.911e-12   -11.206   -11.719    -0.513     (0)  
   FeCl+2          5.978e-12   1.750e-12   -11.223   -11.757    -0.534     (0)  
   FeCl2+          6.684e-14   4.917e-14   -13.175   -13.308    -0.133     (0)  
   Fe(OH)3         1.904e-14   1.999e-14   -13.720   -13.699     0.021     (0)  
   Fe2(OH)2+4      4.237e-17   3.771e-19   -16.373   -18.424    -2.051     (0)  
   FeCl3           2.946e-17   3.092e-17   -16.531   -16.510     0.021     (0)  
   Fe(OH)4-        4.881e-20   3.627e-20   -19.311   -19.440    -0.129     (0)  
   Fe3(OH)4+5      9.828e-24   6.143e-27   -23.008   -26.212    -3.204     (0)  
H(0)          3.389e-18
   H2              1.694e-18   1.778e-18   -17.771   -17.750     0.021     28.61
K             2.029e-04
   K+              1.854e-04   1.313e-04    -3.732    -3.882    -0.150      9.35
   KSO4-           1.750e-05   1.301e-05    -4.757    -4.886    -0.129     (0)  
Mg            1.603e-02
   MgSO4           8.280e-03   8.691e-03    -2.082    -2.061     0.021      5.84
   Mg+2            7.752e-03   2.630e-03    -2.111    -2.580    -0.470    -20.90
   MgHCO3+         4.176e-10   2.984e-10    -9.379    -9.525    -0.146      5.72
   MgOH+           2.494e-11   1.900e-11   -10.603   -10.721    -0.118     (0)  
   MgCO3           2.170e-15   2.277e-15   -14.664   -14.643     0.021    -17.09
Mn(2)         1.360e-03
   Mn+2            7.631e-04   2.462e-04    -3.117    -3.609    -0.491    -16.27
   MnSO4           5.880e-04   6.172e-04    -3.231    -3.210     0.021      4.99
   MnCl+           8.575e-06   6.308e-06    -5.067    -5.200    -0.133      6.66
   MnCl2           1.650e-08   1.732e-08    -7.783    -7.762     0.021     (0)  
   MnHCO3+         2.893e-10   2.128e-10    -9.539    -9.672    -0.133     (0)  
   MnCl3-          4.078e-11   3.000e-11   -10.390   -10.523    -0.133     (0)  
   MnOH+           1.712e-11   1.259e-11   -10.767   -10.900    -0.133     (0)  
   MnCO3           1.691e-14   1.775e-14   -13.772   -13.751     0.021     (0)  
   Mn(OH)3-        4.178e-29   3.073e-29   -28.379   -28.512    -0.133     (0)  
Mn(3)         5.952e-25
   Mn+3            5.952e-25   7.608e-26   -24.225   -25.119    -0.893     (0)  
Na            9.538e-03
   Na+             8.907e-03   6.639e-03    -2.050    -2.178    -0.128     -0.95
   NaSO4-          6.313e-04   4.691e-04    -3.200    -3.329    -0.129     20.22
   NaHCO3          1.541e-10   1.617e-10    -9.812    -9.791     0.021     19.41
   NaCO3-          3.622e-17   2.691e-17   -16.441   -16.570    -0.129      0.27
   NaOH            1.274e-23   1.337e-23   -22.895   -22.874     0.021     (0)  
O(0)          0.000e+00
   O2              0.000e+00   0.000e+00   -56.903   -56.882     0.021     30.40
S(6)          1.018e-01
   SO4-2           4.910e-02   1.410e-02    -1.309    -1.851    -0.542     15.62
   FeSO4           2.304e-02   2.419e-02    -1.637    -1.616     0.021     (0)  
   MgSO4           8.280e-03   8.691e-03    -2.082    -2.061     0.021      5.84
   AlSO4+          6.768e-03   4.910e-03    -2.170    -2.309    -0.139     (0)  
   CaSO4           5.062e-03   5.313e-03    -2.296    -2.275     0.021      7.50
   Al(SO4)2-       3.017e-03   2.189e-03    -2.520    -2.660    -0.139     (0)  
   CuSO4           9.701e-04   1.018e-03    -3.013    -2.992     0.021     (0)  
   HSO4-           9.228e-04   6.870e-04    -3.035    -3.163    -0.128     40.66
   NaSO4-          6.313e-04   4.691e-04    -3.200    -3.329    -0.129     20.22
   MnSO4           5.880e-04   6.172e-04    -3.231    -3.210     0.021      4.99
   ZnSO4           1.348e-04   1.415e-04    -3.870    -3.849     0.021     (0)  
   FeHSO4+         1.070e-04   7.968e-05    -3.970    -4.099    -0.128     (0)  
   Zn(SO4)2-2      5.279e-05   1.621e-05    -4.277    -4.790    -0.513     (0)  
   CaHSO4+         2.351e-05   1.750e-05    -4.629    -4.757    -0.128     (0)  
   KSO4-           1.750e-05   1.301e-05    -4.757    -4.886    -0.129     (0)  
   AlHSO4+2        7.104e-07   2.182e-07    -6.149    -6.661    -0.513     (0)  
   FeSO4+          1.936e-09   1.424e-09    -8.713    -8.846    -0.133     (0)  
   Fe(SO4)2-       5.901e-10   4.393e-10    -9.229    -9.357    -0.128     (0)  
   FeHSO4+2        6.223e-12   1.911e-12   -11.206   -11.719    -0.513     (0)  
Zn            3.348e-04
   Zn+2            1.462e-04   4.281e-05    -3.835    -4.368    -0.534    -23.39
   ZnSO4           1.348e-04   1.415e-04    -3.870    -3.849     0.021     (0)  
   Zn(SO4)2-2      5.279e-05   1.621e-05    -4.277    -4.790    -0.513     (0)  
   ZnCl+           1.014e-06   7.247e-07    -5.994    -6.140    -0.146     -1.56
   ZnCl2           4.547e-09   4.773e-09    -8.342    -8.321     0.021     24.06
   ZnOH+           1.255e-10   9.340e-11    -9.902   -10.030    -0.128     (0)  
   ZnHCO3+         7.021e-11   5.227e-11   -10.154   -10.282    -0.128     (0)  
   ZnCl3-          4.713e-11   3.368e-11   -10.327   -10.473    -0.146     54.11
   ZnOHCl          1.690e-11   1.774e-11   -10.772   -10.751     0.021     (0)  
   ZnCl4-2         3.627e-13   1.062e-13   -12.440   -12.974    -0.534     89.26
   ZnCO3           7.386e-15   7.752e-15   -14.132   -14.111     0.021     (0)  
   Zn(OH)2         2.033e-15   2.134e-15   -14.692   -14.671     0.021     (0)  
   Zn(OH)3-        1.803e-23   1.342e-23   -22.744   -22.872    -0.128     (0)  
   Zn(CO3)2-2      4.897e-25   1.504e-25   -24.310   -24.823    -0.513     (0)  
   Zn(OH)4-2       1.378e-32   4.233e-33   -31.861   -32.373    -0.513     (0)  

------------------------------Saturation indices-------------------------------

	Phase               SI   log IAP   log K(298 K,   1 atm)

	Al(OH)3(a)       -4.86      5.94   10.80  Al(OH)3
	AlOHSO4          -0.31     -2.51   -2.20  AlOHSO4
	Alunite           1.73      0.33   -1.40  KAl3(SO4)2(OH)6
	Anhydrite        -0.25     -4.52   -4.28  CaSO4
	Aragonite        -9.38    -17.72   -8.34  CaCO3
	Calcite          -9.24    -17.72   -8.48  CaCO3
	CO2(g)           -3.50     -4.96   -1.46  CO2	 Pressure   0.0 atm, phi 1.000.
	Dolomite        -18.25    -35.34  -17.09  CaMg(CO3)2
	Fe(OH)3          -6.03     -1.14    4.89  Fe(OH)3
	Fe(OH)3(a)       -6.03     -1.14    4.89  Fe(OH)3
	Gibbsite         -2.17      5.94    8.11  Al(OH)3
	Goethite         -0.14     -1.14   -1.00  FeOOH
	Gypsum            0.05     -4.53   -4.58  CaSO4:2H2O
	H2(g)           -14.65    -17.75   -3.10  H2
	H2O(g)           -1.50     -0.00    1.50  H2O
	Halite           -5.95     -4.38    1.57  NaCl
	Hausmannite     -37.46     23.57   61.03  Mn3O4
	Hematite          1.73     -2.27   -4.01  Fe2O3
	Jarosite-K      -11.69    -20.90   -9.21  KFe3(SO4)2(OH)6
	Manganite       -15.05     10.29   25.34  MnOOH
	Melanterite      -1.67     -3.87   -2.21  FeSO4:7H2O
	MnO2            -23.79     17.59   41.38  MnO2
	O2(g)           -53.99    -56.88   -2.89  O2
	Pyrochroite     -12.21      2.99   15.20  Mn(OH)2
	Pyrolusite      -23.79     17.59   41.38  MnO2:H2O
	Rhodochrosite    -7.52    -18.65  -11.13  MnCO3
	Siderite         -6.17    -17.06  -10.89  FeCO3
	Smithsonite      -9.41    -19.41  -10.00  ZnCO3
	Sylvite          -6.98     -6.08    0.90  KCl
	Zn(OH)2(e)       -9.27      2.23   11.50  Zn(OH)2


Initial solution 1.	

-----------------------------Solution composition------------------------------

	Elements           Molality       Moles

	Al                1.801e-06   1.801e-06
	Alkalinity        2.301e-03   2.301e-03
	Ca                1.222e-03   1.222e-03  Charge balance
	Cl                4.801e-04   4.801e-04
	Cu                1.500e-07   1.500e-07
	Fe                3.501e-07   3.501e-07
	K                 3.001e-05   3.001e-05
	Mg                3.701e-04   3.701e-04
	Mn                1.000e-07   1.000e-07
	Na                9.603e-04   9.603e-04
	O(0)              2.201e-04   2.201e-04
	S(6)              7.002e-04   7.002e-04
	Zn                2.501e-07   2.501e-07

----------------------------Description of solution----------------------------

                                       pH  =   7.190    
                                       pe  =   4.000    
       Specific Conductance (uS/cm, 25 oC) = 413
                          Density (g/cm3)  =   0.99731
                               Volume (L)  =   1.00320
                        Activity of water  =   1.000
                           Ionic strength  =   6.036e-03
                       Mass of water (kg)  =   1.000e+00
                    Total carbon (mol/kg)  =   2.590e-03
                       Total CO2 (mol/kg)  =   2.590e-03
                      Temperature (deg C)  =  25.00
                  Electrical balance (eq)  =   2.063e-17
 Percent error, 100*(Cat-|An|)/(Cat+|An|)  =   0.00
                               Iterations  =  11
                                  Total H  = 1.110147e+02
                                  Total O  = 5.551671e+01

---------------------------------Redox couples---------------------------------

	Redox couple             pe  Eh (volts)

	O(-2)/O(0)          13.3406      0.7892

----------------------------Distribution of species----------------------------

                                               Log       Log       Log    mole V
   Species          Molality    Activity  Molality  Activity     Gamma   cm3/mol

   OH-             1.704e-07   1.567e-07    -6.768    -6.805    -0.036     -4.06
   H+              6.954e-08   6.457e-08    -7.158    -7.190    -0.032      0.00
   H2O             5.551e+01   9.999e-01     1.744    -0.000     0.000     18.07
Al            1.801e-06
   Al(OH)4-        1.720e-06   1.585e-06    -5.764    -5.800    -0.036     (0)  
   Al(OH)3         5.423e-08   5.430e-08    -7.266    -7.265     0.001     (0)  
   Al(OH)2+        2.579e-08   2.380e-08    -7.589    -7.623    -0.035     (0)  
   AlOH+2          2.702e-10   1.961e-10    -9.568    -9.708    -0.139    -27.55
   Al+3            2.485e-12   1.275e-12   -11.605   -11.895    -0.290    -44.02
   AlSO4+          1.925e-12   1.773e-12   -11.716   -11.751    -0.036     (0)  
   Al(SO4)2-       2.678e-14   2.468e-14   -13.572   -13.608    -0.036     (0)  
   AlHSO4+2        1.412e-20   1.015e-20   -19.850   -19.993    -0.143     (0)  
C(4)          2.590e-03
   HCO3-           2.249e-03   2.076e-03    -2.648    -2.683    -0.035     24.65
   CO2             3.010e-04   3.014e-04    -3.521    -3.521     0.001     30.26
   CaHCO3+         2.353e-05   2.174e-05    -4.628    -4.663    -0.034      9.71
   MgHCO3+         6.492e-06   5.976e-06    -5.188    -5.224    -0.036      5.51
   NaHCO3          4.577e-06   4.583e-06    -5.339    -5.339     0.001     19.41
   CO3-2           2.078e-06   1.508e-06    -5.682    -5.822    -0.139     -4.19
   CaCO3           2.077e-06   2.080e-06    -5.683    -5.682     0.001    -14.60
   MgCO3           3.535e-07   3.540e-07    -6.452    -6.451     0.001    -17.09
   CuCO3           7.615e-08   7.625e-08    -7.118    -7.118     0.001     (0)  
   ZnCO3           3.567e-08   3.572e-08    -7.448    -7.447     0.001     (0)  
   ZnHCO3+         3.370e-08   3.103e-08    -7.472    -7.508    -0.036     (0)  
   FeHCO3+         2.437e-08   2.244e-08    -7.613    -7.649    -0.036     (0)  
   MnHCO3+         1.132e-08   1.044e-08    -7.946    -7.981    -0.035     (0)  
   CuHCO3+         1.064e-08   9.797e-09    -7.973    -8.009    -0.036     (0)  
   MnCO3           6.748e-09   6.757e-09    -8.171    -8.170     0.001     (0)  
   NaCO3-          6.414e-09   5.920e-09    -8.193    -8.228    -0.035     -0.60
   FeCO3           3.904e-09   3.909e-09    -8.408    -8.408     0.001     (0)  
   Zn(CO3)2-2      1.602e-09   1.151e-09    -8.795    -8.939    -0.143     (0)  
   Cu(CO3)2-2      2.014e-10   1.447e-10    -9.696    -9.839    -0.143     (0)  
Ca            1.222e-03
   Ca+2            1.132e-03   8.210e-04    -2.946    -3.086    -0.140    -17.99
   CaSO4           6.415e-05   6.424e-05    -4.193    -4.192     0.001      7.50
   CaHCO3+         2.353e-05   2.174e-05    -4.628    -4.663    -0.034      9.71
   CaCO3           2.077e-06   2.080e-06    -5.683    -5.682     0.001    -14.60
   CaOH+           2.292e-09   2.110e-09    -8.640    -8.676    -0.036     (0)  
   CaHSO4+         2.961e-11   2.726e-11   -10.529   -10.564    -0.036     (0)  
Cl            4.801e-04
   Cl-             4.801e-04   4.418e-04    -3.319    -3.355    -0.036     18.12
   ZnCl+           1.533e-10   1.412e-10    -9.814    -9.850    -0.036     -1.76
   MnCl+           1.101e-10   1.015e-10    -9.958    -9.993    -0.035      6.30
   FeCl+           7.158e-11   6.591e-11   -10.145   -10.181    -0.036     (0)  
   CuCl2-          3.313e-11   3.050e-11   -10.480   -10.516    -0.036     (0)  
   ZnOHCl          2.686e-11   2.690e-11   -10.571   -10.570     0.001     (0)  
   CuCl+           1.216e-11   1.120e-11   -10.915   -10.951    -0.036     (0)  
   ZnCl2           6.521e-14   6.530e-14   -13.186   -13.185     0.001     24.06
   CuCl3-2         2.952e-14   2.135e-14   -13.530   -13.671    -0.141     (0)  
   MnCl2           1.955e-14   1.958e-14   -13.709   -13.708     0.001     (0)  
   CuCl2           2.653e-15   2.656e-15   -14.576   -14.576     0.001     (0)  
   ZnCl3-          3.516e-17   3.237e-17   -16.454   -16.490    -0.036     53.75
   MnCl3-          2.583e-18   2.382e-18   -17.588   -17.623    -0.035     (0)  
   FeCl+2          1.903e-18   1.377e-18   -17.720   -17.861    -0.141     (0)  
   ZnCl4-2         9.906e-21   7.167e-21   -20.004   -20.145    -0.141     87.82
   CuCl3-          4.523e-21   4.164e-21   -20.345   -20.381    -0.036     (0)  
   FeCl2+          2.946e-21   2.717e-21   -20.531   -20.566    -0.035     (0)  
   FeCl3           1.199e-25   1.201e-25   -24.921   -24.921     0.001     (0)  
   CuCl4-2         1.274e-26   9.219e-27   -25.895   -26.035    -0.141     (0)  
Cu(1)         5.716e-10
   Cu+             5.384e-10   4.942e-10    -9.269    -9.306    -0.037     (0)  
   CuCl2-          3.313e-11   3.050e-11   -10.480   -10.516    -0.036     (0)  
   CuCl3-2         2.952e-14   2.135e-14   -13.530   -13.671    -0.141     (0)  
Cu(2)         1.495e-07
   CuCO3           7.615e-08   7.625e-08    -7.118    -7.118     0.001     (0)  
   Cu(OH)2         4.712e-08   4.718e-08    -7.327    -7.326     0.001     (0)  
   Cu+2            1.292e-08   9.416e-09    -7.889    -8.026    -0.137    -24.43
   CuHCO3+         1.064e-08   9.797e-09    -7.973    -8.009    -0.036     (0)  
   CuOH+           1.584e-09   1.458e-09    -8.800    -8.836    -0.036     (0)  
   CuSO4           8.448e-10   8.459e-10    -9.073    -9.073     0.001     (0)  
   Cu(CO3)2-2      2.014e-10   1.447e-10    -9.696    -9.839    -0.143     (0)  
   CuCl+           1.216e-11   1.120e-11   -10.915   -10.951    -0.036     (0)  
   Cu2(OH)2+2      1.295e-12   9.305e-13   -11.888   -12.031    -0.143     (0)  
   Cu(OH)3-        4.782e-14   4.403e-14   -13.320   -13.356    -0.036     (0)  
   CuCl2           2.653e-15   2.656e-15   -14.576   -14.576     0.001     (0)  
   Cu(OH)4-2       1.893e-19   1.360e-19   -18.723   -18.866    -0.143     (0)  
   CuCl3-          4.523e-21   4.164e-21   -20.345   -20.381    -0.036     (0)  
   CuCl4-2         1.274e-26   9.219e-27   -25.895   -26.035    -0.141     (0)  
Fe(2)         1.857e-07
   Fe+2            1.483e-07   1.081e-07    -6.829    -6.966    -0.137    -21.99
   FeHCO3+         2.437e-08   2.244e-08    -7.613    -7.649    -0.036     (0)  
   FeSO4           8.445e-09   8.457e-09    -8.073    -8.073     0.001     (0)  
   FeCO3           3.904e-09   3.909e-09    -8.408    -8.408     0.001     (0)  
   FeOH+           5.739e-10   5.293e-10    -9.241    -9.276    -0.035     (0)  
   FeCl+           7.158e-11   6.591e-11   -10.145   -10.181    -0.036     (0)  
   Fe(OH)2         6.967e-14   6.977e-14   -13.157   -13.156     0.001     (0)  
   FeHSO4+         3.898e-15   3.589e-15   -14.409   -14.445    -0.036     (0)  
   Fe(OH)3-        4.353e-17   4.014e-17   -16.361   -16.396    -0.035     (0)  
Fe(3)         1.644e-07
   Fe(OH)3         1.054e-07   1.056e-07    -6.977    -6.976     0.001     (0)  
   Fe(OH)2+        5.734e-08   5.293e-08    -7.242    -7.276    -0.035     (0)  
   Fe(OH)4-        1.616e-09   1.491e-09    -8.792    -8.826    -0.035     (0)  
   FeOH+2          1.426e-11   1.032e-11   -10.846   -10.986    -0.141     (0)  
   FeSO4+          5.399e-16   4.980e-16   -15.268   -15.303    -0.035     (0)  
   Fe+3            2.013e-16   1.032e-16   -15.696   -15.986    -0.290     (0)  
   Fe(SO4)2-       5.206e-18   4.794e-18   -17.283   -17.319    -0.036     (0)  
   FeCl+2          1.903e-18   1.377e-18   -17.720   -17.861    -0.141     (0)  
   Fe2(OH)2+4      1.074e-20   2.867e-21   -19.969   -20.543    -0.573     (0)  
   FeCl2+          2.946e-21   2.717e-21   -20.531   -20.566    -0.035     (0)  
   FeHSO4+2        1.198e-22   8.610e-23   -21.922   -22.065    -0.143     (0)  
   Fe3(OH)4+5      2.496e-25   3.170e-26   -24.603   -25.499    -0.896     (0)  
   FeCl3           1.199e-25   1.201e-25   -24.921   -24.921     0.001     (0)  
H(0)          5.894e-26
   H2              2.947e-26   2.951e-26   -25.531   -25.530     0.001     28.61
K             3.001e-05
   K+              2.992e-05   2.752e-05    -4.524    -4.560    -0.036      9.05
   KSO4-           9.218e-08   8.508e-08    -7.035    -7.070    -0.035     (0)  
Mg            3.701e-04
   Mg+2            3.379e-04   2.460e-04    -3.471    -3.609    -0.138    -21.68
   MgSO4           2.534e-05   2.538e-05    -4.596    -4.596     0.001      5.84
   MgHCO3+         6.492e-06   5.976e-06    -5.188    -5.224    -0.036      5.51
   MgCO3           3.535e-07   3.540e-07    -6.452    -6.451     0.001    -17.09
   MgOH+           1.496e-08   1.383e-08    -7.825    -7.859    -0.034     (0)  
Mn(2)         1.000e-07
   Mn+2            7.742e-08   5.642e-08    -7.111    -7.249    -0.137    -16.92
   MnHCO3+         1.132e-08   1.044e-08    -7.946    -7.981    -0.035     (0)  
   MnCO3           6.748e-09   6.757e-09    -8.171    -8.170     0.001     (0)  
   MnSO4           4.408e-09   4.414e-09    -8.356    -8.355     0.001      4.99
   MnCl+           1.101e-10   1.015e-10    -9.958    -9.993    -0.035      6.30
   MnOH+           2.435e-11   2.246e-11   -10.614   -10.649    -0.035     (0)  
   MnCl2           1.955e-14   1.958e-14   -13.709   -13.708     0.001     (0)  
   MnCl3-          2.583e-18   2.382e-18   -17.588   -17.623    -0.035     (0)  
   Mn(OH)3-        3.601e-21   3.321e-21   -20.444   -20.479    -0.035     (0)  
Mn(3)         3.399e-29
   Mn+3            3.399e-29   1.743e-29   -28.469   -28.759    -0.290     (0)  
Na            9.603e-04
   Na+             9.536e-04   8.790e-04    -3.021    -3.056    -0.035     -1.34
   NaHCO3          4.577e-06   4.583e-06    -5.339    -5.339     0.001     19.41
   NaSO4-          2.100e-06   1.938e-06    -5.678    -5.713    -0.035     18.54
   NaCO3-          6.414e-09   5.920e-09    -8.193    -8.228    -0.035     -0.60
   NaOH            1.376e-20   1.378e-20   -19.861   -19.861     0.001     (0)  
O(0)          2.201e-04
   O2              1.100e-04   1.102e-04    -3.958    -3.958     0.001     30.40
S(6)          7.002e-04
   SO4-2           6.085e-04   4.400e-04    -3.216    -3.357    -0.141     14.19
   CaSO4           6.415e-05   6.424e-05    -4.193    -4.192     0.001      7.50
   MgSO4           2.534e-05   2.538e-05    -4.596    -4.596     0.001      5.84
   NaSO4-          2.100e-06   1.938e-06    -5.678    -5.713    -0.035     18.54
   KSO4-           9.218e-08   8.508e-08    -7.035    -7.070    -0.035     (0)  
   ZnSO4           1.223e-08   1.225e-08    -7.913    -7.912     0.001     (0)  
   FeSO4           8.445e-09   8.457e-09    -8.073    -8.073     0.001     (0)  
   MnSO4           4.408e-09   4.414e-09    -8.356    -8.355     0.001      4.99
   HSO4-           3.000e-09   2.762e-09    -8.523    -8.559    -0.036     40.32
   CuSO4           8.448e-10   8.459e-10    -9.073    -9.073     0.001     (0)  
   Zn(SO4)2-2      6.093e-11   4.379e-11   -10.215   -10.359    -0.143     (0)  
   CaHSO4+         2.961e-11   2.726e-11   -10.529   -10.564    -0.036     (0)  
   AlSO4+          1.925e-12   1.773e-12   -11.716   -11.751    -0.036     (0)  
   Al(SO4)2-       2.678e-14   2.468e-14   -13.572   -13.608    -0.036     (0)  
   FeHSO4+         3.898e-15   3.589e-15   -14.409   -14.445    -0.036     (0)  
   FeSO4+          5.399e-16   4.980e-16   -15.268   -15.303    -0.035     (0)  
   Fe(SO4)2-       5.206e-18   4.794e-18   -17.283   -17.319    -0.036     (0)  
   AlHSO4+2        1.412e-20   1.015e-20   -19.850   -19.993    -0.143     (0)  
   FeHSO4+2        1.198e-22   8.610e-23   -21.922   -22.065    -0.143     (0)  
Zn            2.501e-07
   Zn+2            1.641e-07   1.187e-07    -6.785    -6.925    -0.141    -24.12
   ZnCO3           3.567e-08   3.572e-08    -7.448    -7.447     0.001     (0)  
   ZnHCO3+         3.370e-08   3.103e-08    -7.472    -7.508    -0.036     (0)  
   ZnSO4           1.223e-08   1.225e-08    -7.913    -7.912     0.001     (0)  
   ZnOH+           2.189e-09   2.016e-09    -8.660    -8.696    -0.036     (0)  
   Zn(CO3)2-2      1.602e-09   1.151e-09    -8.795    -8.939    -0.143     (0)  
   Zn(OH)2         3.579e-10   3.584e-10    -9.446    -9.446     0.001     (0)  
   ZnCl+           1.533e-10   1.412e-10    -9.814    -9.850    -0.036     -1.76
   Zn(SO4)2-2      6.093e-11   4.379e-11   -10.215   -10.359    -0.143     (0)  
   ZnOHCl          2.686e-11   2.690e-11   -10.571   -10.570     0.001     (0)  
   ZnCl2           6.521e-14   6.530e-14   -13.186   -13.185     0.001     24.06
   Zn(OH)3-        1.906e-14   1.755e-14   -13.720   -13.756    -0.036     (0)  
   ZnCl3-          3.516e-17   3.237e-17   -16.454   -16.490    -0.036     53.75
   Zn(OH)4-2       5.994e-20   4.309e-20   -19.222   -19.366    -0.143     (0)  
   ZnCl4-2         9.906e-21   7.167e-21   -20.004   -20.145    -0.141     87.82

------------------------------Saturation indices-------------------------------

	Phase               SI   log IAP   log K(298 K,   1 atm)

	Al(OH)3(a)       -1.12      9.68   10.80  Al(OH)3
	AlOHSO4          -5.86     -8.06   -2.20  AlOHSO4
	Alunite          -2.42     -3.82   -1.40  KAl3(SO4)2(OH)6
	Anhydrite        -2.16     -6.44   -4.28  CaSO4
	Aragonite        -0.57     -8.91   -8.34  CaCO3
	Calcite          -0.43     -8.91   -8.48  CaCO3
	CO2(g)           -2.06     -3.52   -1.46  CO2	 Pressure   0.0 atm, phi 1.000.
	Dolomite         -1.25    -18.34  -17.09  CaMg(CO3)2
	Fe(OH)3           0.69      5.58    4.89  Fe(OH)3
	Fe(OH)3(a)        0.69      5.58    4.89  Fe(OH)3
	Gibbsite          1.57      9.68    8.11  Al(OH)3
	Goethite          6.58      5.58   -1.00  FeOOH
	Gypsum           -1.86     -6.44   -4.58  CaSO4:2H2O
	H2(g)           -22.43    -25.53   -3.10  H2
	H2O(g)           -1.50     -0.00    1.50  H2O
	Halite           -7.98     -6.41    1.57  NaCl
	Hausmannite     -17.26     43.77   61.03  Mn3O4
	Hematite         15.18     11.17   -4.01  Fe2O3
	Jarosite-K       -6.88    -16.09   -9.21  KFe3(SO4)2(OH)6
	Manganite        -7.02     18.32   25.34  MnOOH
	Melanterite      -8.11    -10.32   -2.21  FeSO4:7H2O
	MnO2            -11.87     29.51   41.38  MnO2
	O2(g)            -1.07     -3.96   -2.89  O2
	Pyrochroite      -8.07      7.13   15.20  Mn(OH)2
	Pyrolusite      -11.87     29.51   41.38  MnO2:H2O
	Rhodochrosite    -1.94    -13.07  -11.13  MnCO3
	Siderite         -1.90    -12.79  -10.89  FeCO3
	Smithsonite      -2.75    -12.75  -10.00  ZnCO3
	Sylvite          -8.81     -7.92    0.90  KCl
	Zn(OH)2(e)       -4.05      7.45   11.50  Zn(OH)2


------------------------------------
Beginning of advection calculations.
------------------------------------

Beginning of advection time step 1, cumulative pore volumes 0.200000.
WARNING: Maximum iterations exceeded, 100

WARNING: Numerical method failed with this set of convergence parameters.

WARNING: Trying smaller step size, pe step size 10, 5 ... 

WARNING: Maximum iterations exceeded, 100

WARNING: Numerical method failed with this set of convergence parameters.

WARNING: Trying smaller step size, pe step size 10, 5 ... 

WARNING: Maximum iterations exceeded, 200

WARNING: Numerical method failed with this set of convergence parameters.

WARNING: Trying reduced tolerance 1e-16 ...

WARNING: Maximum iterations exceeded, 100

WARNING: Numerical method failed with this set of convergence parameters.

WARNING: Trying smaller step size, pe step size 10, 5 ... 

WARNING: Maximum iterations exceeded, 200

WARNING: Numerical method failed with this set of convergence parameters.

WARNING: Trying reduced tolerance 1e-16 ...

WARNING: Maximum iterations exceeded, 100

WARNING: Numerical method failed with this set of convergence parameters.

WARNING: Trying smaller step size, pe step size 10, 5 ... 

WARNING: Maximum iterations exceeded, 200

WARNING: Numerical method failed with this set of convergence parameters.

WARNING: Trying reduced tolerance 1e-16 ...

WARNING: Maximum iterations exceeded, 100

WARNING: Numerical method failed with this set of convergence parameters.

WARNING: Trying smaller step size, pe step size 10, 5 ... 

WARNING: Maximum iterations exceeded, 200

WARNING: Numerical method failed with this set of convergence parameters.

WARNING: Trying reduced tolerance 1e-16 ...

Beginning of advection time step 2, cumulative pore volumes 0.400000.
Beginning of advection time step 3, cumulative pore volumes 0.600000.
Beginning of advection time step 4, cumulative pore volumes 0.800000.
Beginning of advection time step 5, cumulative pore volumes 1.000000.

Cell 1.

Using solution 1.	
Using surface 1.	
Using pure phase assemblage 1.	Pure-phase assemblage after simulation 1.

-------------------------------Phase assemblage--------------------------------

                                                      Moles in assemblage
Phase               SI  log IAP  log K(T, P)   Initial       Final       Delta

Al(OH)3(a)        0.00    10.80     10.80    4.258e-02   5.318e-02   1.061e-02
AlOHSO4          -0.39    -2.59     -2.20    0.000e+00           0   0.000e+00
Calcite          -3.00   -11.48     -8.48    0.000e+00           0   0.000e+00
Fe(OH)3           0.00     4.89      4.89    8.190e-01   8.187e-01  -3.175e-04
Gypsum           -0.00    -4.58     -4.58    1.354e-01   1.369e-01   1.466e-03
MnO2            -15.77    25.61     41.38    0.000e+00           0   0.000e+00

------------------------------Surface composition------------------------------

Surf          
	 -7.346e-17  Surface + diffuse layer charge, eq
	  1.011e-01  Surface charge, eq
	  2.500e-01  sigma, C/m**2
	  7.578e-02  psi, V
	 -2.950e+00  -F*psi/RT
	  5.235e-02  exp(-F*psi/RT)
	  6.000e+02  specific area, m**2/g
	  3.900e+04  m**2 for   6.500e+01 g

	Water in diffuse layer: 3.900e-02 kg, 100.0% of total DDL-water.

	Total moles in diffuse layer (excluding water)

	Element       	     Moles
	Al            	  1.6052e-06
	C             	  2.3472e-05
	Ca            	  1.1368e-04
	Cl            	  1.5126e-03
	Cu            	  9.4714e-06
	Fe            	  6.0009e-04
	H             	  1.5817e-05
	K             	  3.8426e-06
	Mg            	  2.4454e-04
	Mn            	  1.2624e-04
	Na            	  1.5080e-04
	O             	  2.0409e-01
	S             	  5.1007e-02
	Zn            	  7.3977e-05

Surf          
	  1.500e-01  moles
	                                   Mole                     Log
	Species               Moles    Fraction    Molality    Molality

	SurfOH2+          8.162e-02       0.544   8.167e-02      -1.088
	SurfOH            4.767e-02       0.318   4.770e-02      -1.321
	SurfOCu+          1.164e-02       0.078   1.165e-02      -1.934
	SurfOMn+          7.585e-03       0.051   7.589e-03      -2.120
	SurfOZn+          8.418e-04       0.006   8.423e-04      -3.075
	SurfO-            6.378e-04       0.004   6.382e-04      -3.195

-----------------------------Solution composition------------------------------

	Elements           Molality       Moles

	Al                4.811e-05   4.808e-05
	C                 4.236e-04   4.234e-04
	Ca                1.031e-02   1.030e-02
	Cl                9.616e-03   9.610e-03
	Cu                6.692e-05   6.688e-05
	Fe                5.347e-02   5.344e-02
	K                 2.028e-04   2.027e-04
	Mg                1.603e-02   1.602e-02
	Mn                1.127e-02   1.127e-02
	Na                9.535e-03   9.529e-03
	S                 9.158e-02   9.152e-02
	Zn                4.362e-04   4.359e-04

----------------------------Description of solution----------------------------

                                       pH  =   5.775      Charge balance
                                       pe  =   2.603      Adjusted to redox equilibrium
       Specific Conductance (uS/cm, 25 oC) = 9043
                          Density (g/cm3)  =   1.01077
                               Volume (L)  =   1.00824
                        Activity of water  =   0.997
                           Ionic strength  =   2.088e-01
                       Mass of water (kg)  =   9.994e-01
                 Total alkalinity (eq/kg)  =   2.248e-04
                       Total CO2 (mol/kg)  =   4.236e-04
                      Temperature (deg C)  =  25.00
                  Electrical balance (eq)  =   6.318e-17
 Percent error, 100*(Cat-|An|)/(Cat+|An|)  =   0.00
                               Iterations  =   1
                                  Total H  = 1.109453e+02
                                  Total O  = 5.583969e+01

----------------------------Distribution of species----------------------------

                                               Log       Log       Log    mole V
   Species          Molality    Activity  Molality  Activity     Gamma   cm3/mol

   H+              2.108e-06   1.678e-06    -5.676    -5.775    -0.099      0.00
   OH-             8.554e-09   6.017e-09    -8.068    -8.221    -0.153     -3.48
   H2O             5.551e+01   9.973e-01     1.744    -0.001     0.000     18.07
Al            4.811e-05
   AlSO4+          1.864e-05   1.353e-05    -4.730    -4.869    -0.139     (0)  
   Al(OH)2+        1.111e-05   8.263e-06    -4.954    -5.083    -0.129     (0)  
   Al(SO4)2-       8.399e-06   6.098e-06    -5.076    -5.215    -0.139     (0)  
   AlOH+2          5.803e-06   1.773e-06    -5.236    -5.751    -0.515    -26.86
   Al+3            2.343e-06   3.003e-07    -5.630    -6.522    -0.892    -42.90
   Al(OH)4-        1.117e-06   8.110e-07    -5.952    -6.091    -0.139     (0)  
   Al(OH)3         6.898e-07   7.238e-07    -6.161    -6.140     0.021     (0)  
   AlHSO4+2        6.544e-12   2.013e-12   -11.184   -11.696    -0.512     (0)  
C(-4)         0.000e+00
   CH4             0.000e+00   0.000e+00   -46.271   -46.250     0.021     32.22
C(4)          4.236e-04
   CO2             2.312e-04   2.426e-04    -3.636    -3.615     0.021     30.26
   HCO3-           8.626e-05   6.413e-05    -4.064    -4.193    -0.129     25.77
   FeHCO3+         8.327e-05   6.202e-05    -4.079    -4.208    -0.128     (0)  
   MnHCO3+         1.576e-05   1.160e-05    -4.802    -4.935    -0.133     (0)  
   MgHCO3+         2.745e-06   1.963e-06    -5.561    -5.707    -0.146      5.72
   CaHCO3+         2.010e-06   1.515e-06    -5.697    -5.819    -0.123      9.88
   NaHCO3          1.019e-06   1.069e-06    -5.992    -5.971     0.021     19.41
   ZnHCO3+         5.996e-07   4.465e-07    -6.222    -6.350    -0.128     (0)  
   FeCO3           3.964e-07   4.159e-07    -6.402    -6.381     0.021     (0)  
   MnCO3           2.755e-07   2.891e-07    -6.560    -6.539     0.021     (0)  
   CuHCO3+         8.486e-08   6.319e-08    -7.071    -7.199    -0.128     (0)  
   ZnCO3           1.886e-08   1.978e-08    -7.725    -7.704     0.021     (0)  
   CuCO3           1.804e-08   1.893e-08    -7.744    -7.723     0.021     (0)  
   CO3-2           5.867e-09   1.793e-09    -8.232    -8.746    -0.515     -2.44
   CaCO3           5.317e-09   5.578e-09    -8.274    -8.253     0.021    -14.60
   MgCO3           4.265e-09   4.475e-09    -8.370    -8.349     0.021    -17.09
   NaCO3-          7.146e-11   5.313e-11   -10.146   -10.275    -0.129      0.26
   Zn(CO3)2-2      2.466e-12   7.584e-13   -11.608   -12.120    -0.512     (0)  
   Cu(CO3)2-2      1.389e-13   4.273e-14   -12.857   -13.369    -0.512     (0)  
Ca            1.031e-02
   Ca+2            5.831e-03   1.852e-03    -2.234    -2.732    -0.498    -17.20
   CaSO4           4.473e-03   4.693e-03    -2.349    -2.329     0.021      7.50
   CaHCO3+         2.010e-06   1.515e-06    -5.697    -5.819    -0.123      9.88
   CaHSO4+         6.949e-08   5.175e-08    -7.158    -7.286    -0.128     (0)  
   CaCO3           5.317e-09   5.578e-09    -8.274    -8.253     0.021    -14.60
   CaOH+           2.454e-10   1.827e-10    -9.610    -9.738    -0.128     (0)  
Cl            9.616e-03
   Cl-             9.317e-03   6.637e-03    -2.031    -2.178    -0.147     18.47
   FeCl+           1.190e-04   8.859e-05    -3.925    -4.053    -0.128     (0)  
   MnCl+           7.457e-05   5.488e-05    -4.127    -4.261    -0.133      6.66
   CuCl2-          5.011e-05   3.584e-05    -4.300    -4.446    -0.146     (0)  
   ZnCl+           1.381e-06   9.879e-07    -5.860    -6.005    -0.146     -1.56
   CuCl3-2         1.285e-06   3.770e-07    -5.891    -6.424    -0.533     (0)  
   MnCl2           1.515e-07   1.590e-07    -6.820    -6.799     0.021     (0)  
   CuCl+           4.911e-08   3.512e-08    -7.309    -7.454    -0.146     (0)  
   ZnOHCl          6.886e-09   7.225e-09    -8.162    -8.141     0.021     (0)  
   ZnCl2           6.543e-09   6.865e-09    -8.184    -8.163     0.021     24.06
   MnCl3-          3.949e-10   2.906e-10    -9.404    -9.537    -0.133     (0)  
   CuCl2           1.193e-10   1.252e-10    -9.923    -9.903     0.021     (0)  
   ZnCl3-          7.149e-11   5.112e-11   -10.146   -10.291    -0.146     54.10
   ZnCl4-2         5.796e-13   1.701e-13   -12.237   -12.769    -0.533     89.25
   FeCl+2          2.530e-13   7.422e-14   -12.597   -13.129    -0.533     (0)  
   CuCl3-          4.122e-15   2.948e-15   -14.385   -14.531    -0.146     (0)  
   FeCl2+          2.990e-15   2.200e-15   -14.524   -14.658    -0.133     (0)  
   FeCl3           1.392e-18   1.460e-18   -17.856   -17.836     0.021     (0)  
   CuCl4-2         3.342e-19   9.804e-20   -18.476   -19.009    -0.533     (0)  
Cu(1)         5.520e-05
   CuCl2-          5.011e-05   3.584e-05    -4.300    -4.446    -0.146     (0)  
   Cu+             3.801e-06   2.573e-06    -5.420    -5.590    -0.169     (0)  
   CuCl3-2         1.285e-06   3.770e-07    -5.891    -6.424    -0.533     (0)  
Cu(2)         1.172e-05
   Cu+2            6.082e-06   1.966e-06    -5.216    -5.706    -0.490    -23.77
   CuSO4           5.451e-06   5.720e-06    -5.264    -5.243     0.021     (0)  
   CuHCO3+         8.486e-08   6.319e-08    -7.071    -7.199    -0.128     (0)  
   CuCl+           4.911e-08   3.512e-08    -7.309    -7.454    -0.146     (0)  
   CuCO3           1.804e-08   1.893e-08    -7.744    -7.723     0.021     (0)  
   CuOH+           1.634e-08   1.169e-08    -7.787    -7.932    -0.146     (0)  
   Cu(OH)2         1.384e-08   1.452e-08    -7.859    -7.838     0.021     (0)  
   Cu2(OH)2+2      1.943e-10   5.977e-11    -9.711   -10.223    -0.512     (0)  
   CuCl2           1.193e-10   1.252e-10    -9.923    -9.903     0.021     (0)  
   Cu(CO3)2-2      1.389e-13   4.273e-14   -12.857   -13.369    -0.512     (0)  
   CuCl3-          4.122e-15   2.948e-15   -14.385   -14.531    -0.146     (0)  
   Cu(OH)3-        6.983e-16   5.200e-16   -15.156   -15.284    -0.128     (0)  
   CuCl4-2         3.342e-19   9.804e-20   -18.476   -19.009    -0.533     (0)  
   Cu(OH)4-2       2.005e-22   6.168e-23   -21.698   -22.210    -0.512     (0)  
   Cu(HS)3-        0.000e+00   0.000e+00  -102.662  -102.790    -0.128     (0)  
Fe(2)         5.347e-02
   Fe+2            2.991e-02   9.670e-03    -1.524    -2.015    -0.490    -21.20
   FeSO4           2.335e-02   2.450e-02    -1.632    -1.611     0.021     (0)  
   FeCl+           1.190e-04   8.859e-05    -3.925    -4.053    -0.128     (0)  
   FeHCO3+         8.327e-05   6.202e-05    -4.079    -4.208    -0.128     (0)  
   FeOH+           2.470e-06   1.818e-06    -5.607    -5.740    -0.133     (0)  
   FeCO3           3.964e-07   4.159e-07    -6.402    -6.381     0.021     (0)  
   FeHSO4+         3.628e-07   2.702e-07    -6.440    -6.568    -0.128     (0)  
   Fe(OH)2         8.766e-12   9.198e-12   -11.057   -11.036     0.021     (0)  
   Fe(OH)3-        2.760e-16   2.032e-16   -15.559   -15.692    -0.133     (0)  
   Fe(HS)2         0.000e+00   0.000e+00   -75.075   -75.054     0.021     (0)  
   Fe(HS)3-        0.000e+00   0.000e+00  -113.884  -114.012    -0.128     (0)  
Fe(3)         4.017e-07
   Fe(OH)2+        3.763e-07   2.798e-07    -6.424    -6.553    -0.129     (0)  
   Fe(OH)3         2.042e-08   2.143e-08    -7.690    -7.669     0.021     (0)  
   FeOH+2          4.844e-09   1.421e-09    -8.315    -8.847    -0.533     (0)  
   FeSO4+          7.861e-11   5.786e-11   -10.105   -10.238    -0.133     (0)  
   Fe(SO4)2-       2.422e-11   1.804e-11   -10.616   -10.744    -0.128     (0)  
   Fe(OH)4-        1.563e-11   1.162e-11   -10.806   -10.935    -0.129     (0)  
   Fe+3            2.889e-12   3.703e-13   -11.539   -12.431    -0.892     (0)  
   FeCl+2          2.530e-13   7.422e-14   -12.597   -13.129    -0.533     (0)  
   Fe2(OH)2+4      6.076e-15   5.438e-17   -14.216   -16.265    -2.048     (0)  
   FeCl2+          2.990e-15   2.200e-15   -14.524   -14.658    -0.133     (0)  
   FeHSO4+2        8.450e-16   2.599e-16   -15.073   -15.585    -0.512     (0)  
   Fe3(OH)4+5      5.042e-18   3.179e-21   -17.297   -20.498    -3.200     (0)  
   FeCl3           1.392e-18   1.460e-18   -17.856   -17.836     0.021     (0)  
H(0)          2.361e-20
   H2              1.181e-20   1.239e-20   -19.928   -19.907     0.021     28.61
K             2.028e-04
   K+              1.852e-04   1.312e-04    -3.732    -3.882    -0.150      9.35
   KSO4-           1.767e-05   1.313e-05    -4.753    -4.882    -0.129     (0)  
Mg            1.603e-02
   MgSO4           8.328e-03   8.738e-03    -2.079    -2.059     0.021      5.84
   Mg+2            7.700e-03   2.616e-03    -2.114    -2.582    -0.469    -20.91
   MgHCO3+         2.745e-06   1.963e-06    -5.561    -5.707    -0.146      5.72
   MgOH+           7.408e-09   5.646e-09    -8.130    -8.248    -0.118     (0)  
   MgCO3           4.265e-09   4.475e-09    -8.370    -8.349     0.021    -17.09
Mn(2)         1.127e-02
   Mn+2            6.280e-03   2.030e-03    -2.202    -2.693    -0.490    -16.27
   MnSO4           4.902e-03   5.143e-03    -2.310    -2.289     0.021      4.99
   MnCl+           7.457e-05   5.488e-05    -4.127    -4.261    -0.133      6.66
   MnHCO3+         1.576e-05   1.160e-05    -4.802    -4.935    -0.133     (0)  
   MnCO3           2.755e-07   2.891e-07    -6.560    -6.539     0.021     (0)  
   MnCl2           1.515e-07   1.590e-07    -6.820    -6.799     0.021     (0)  
   MnOH+           4.214e-08   3.102e-08    -7.375    -7.508    -0.133     (0)  
   MnCl3-          3.949e-10   2.906e-10    -9.404    -9.537    -0.133     (0)  
   Mn(OH)3-        9.184e-21   6.759e-21   -20.037   -20.170    -0.133     (0)  
Mn(3)         1.962e-25
   Mn+3            1.962e-25   2.515e-26   -24.707   -25.599    -0.892     (0)  
Na            9.535e-03
   Na+             8.896e-03   6.634e-03    -2.051    -2.178    -0.127     -0.95
   NaSO4-          6.373e-04   4.738e-04    -3.196    -3.324    -0.129     20.22
   NaHCO3          1.019e-06   1.069e-06    -5.992    -5.971     0.021     19.41
   NaCO3-          7.146e-11   5.313e-11   -10.146   -10.275    -0.129      0.26
   NaOH            3.805e-21   3.992e-21   -20.420   -20.399     0.021     (0)  
O(0)          0.000e+00
   O2              0.000e+00   0.000e+00   -52.589   -52.568     0.021     30.40
S(-2)         1.415e-40
   H2S             1.415e-40   1.485e-40   -39.849   -39.828     0.021     37.16
   HS-             0.000e+00   0.000e+00   -40.842   -40.995    -0.153     21.00
   S-2             0.000e+00   0.000e+00   -47.605   -48.137    -0.533     (0)  
   Zn(HS)2         0.000e+00   0.000e+00   -71.327   -71.307     0.021     (0)  
   Fe(HS)2         0.000e+00   0.000e+00   -75.075   -75.054     0.021     (0)  
   Cu(HS)3-        0.000e+00   0.000e+00  -102.662  -102.790    -0.128     (0)  
   Zn(HS)3-        0.000e+00   0.000e+00  -111.013  -111.141    -0.128     (0)  
   Fe(HS)3-        0.000e+00   0.000e+00  -113.884  -114.012    -0.128     (0)  
S(6)          9.158e-02
   SO4-2           4.951e-02   1.425e-02    -1.305    -1.846    -0.541     15.62
   FeSO4           2.335e-02   2.450e-02    -1.632    -1.611     0.021     (0)  
   MgSO4           8.328e-03   8.738e-03    -2.079    -2.059     0.021      5.84
   MnSO4           4.902e-03   5.143e-03    -2.310    -2.289     0.021      4.99
   CaSO4           4.473e-03   4.693e-03    -2.349    -2.329     0.021      7.50
   NaSO4-          6.373e-04   4.738e-04    -3.196    -3.324    -0.129     20.22
   ZnSO4           1.761e-04   1.847e-04    -3.754    -3.733     0.021     (0)  
   Zn(SO4)2-2      6.956e-05   2.140e-05    -4.158    -4.670    -0.512     (0)  
   AlSO4+          1.864e-05   1.353e-05    -4.730    -4.869    -0.139     (0)  
   KSO4-           1.767e-05   1.313e-05    -4.753    -4.882    -0.129     (0)  
   Al(SO4)2-       8.399e-06   6.098e-06    -5.076    -5.215    -0.139     (0)  
   CuSO4           5.451e-06   5.720e-06    -5.264    -5.243     0.021     (0)  
   HSO4-           3.121e-06   2.324e-06    -5.506    -5.634    -0.128     40.66
   FeHSO4+         3.628e-07   2.702e-07    -6.440    -6.568    -0.128     (0)  
   CaHSO4+         6.949e-08   5.175e-08    -7.158    -7.286    -0.128     (0)  
   FeSO4+          7.861e-11   5.786e-11   -10.105   -10.238    -0.133     (0)  
   Fe(SO4)2-       2.422e-11   1.804e-11   -10.616   -10.744    -0.128     (0)  
   AlHSO4+2        6.544e-12   2.013e-12   -11.184   -11.696    -0.512     (0)  
   FeHSO4+2        8.450e-16   2.599e-16   -15.073   -15.585    -0.512     (0)  
Zn            4.362e-04
   Zn+2            1.885e-04   5.530e-05    -3.725    -4.257    -0.533    -23.39
   ZnSO4           1.761e-04   1.847e-04    -3.754    -3.733     0.021     (0)  
   Zn(SO4)2-2      6.956e-05   2.140e-05    -4.158    -4.670    -0.512     (0)  
   ZnCl+           1.381e-06   9.879e-07    -5.860    -6.005    -0.146     -1.56
   ZnHCO3+         5.996e-07   4.465e-07    -6.222    -6.350    -0.128     (0)  
   ZnOH+           4.841e-08   3.605e-08    -7.315    -7.443    -0.128     (0)  
   ZnCO3           1.886e-08   1.978e-08    -7.725    -7.704     0.021     (0)  
   ZnOHCl          6.886e-09   7.225e-09    -8.162    -8.141     0.021     (0)  
   ZnCl2           6.543e-09   6.865e-09    -8.184    -8.163     0.021     24.06
   Zn(OH)2         2.345e-10   2.461e-10    -9.630    -9.609     0.021     (0)  
   ZnCl3-          7.149e-11   5.112e-11   -10.146   -10.291    -0.146     54.10
   Zn(CO3)2-2      2.466e-12   7.584e-13   -11.608   -12.120    -0.512     (0)  
   ZnCl4-2         5.796e-13   1.701e-13   -12.237   -12.769    -0.533     89.25
   Zn(OH)3-        6.211e-16   4.626e-16   -15.207   -15.335    -0.128     (0)  
   Zn(OH)4-2       1.417e-22   4.358e-23   -21.849   -22.361    -0.512     (0)  
   Zn(HS)2         0.000e+00   0.000e+00   -71.327   -71.307     0.021     (0)  
   Zn(HS)3-        0.000e+00   0.000e+00  -111.013  -111.141    -0.128     (0)  

------------------------------Saturation indices-------------------------------

	Phase               SI   log IAP   log K(298 K,   1 atm)

	Al(OH)3(a)        0.00     10.80   10.80  Al(OH)3
	AlOHSO4          -0.39     -2.59   -2.20  AlOHSO4
	Alunite           8.90      7.50   -1.40  KAl3(SO4)2(OH)6
	Anhydrite        -0.30     -4.58   -4.28  CaSO4
	Aragonite        -3.14    -11.48   -8.34  CaCO3
	Calcite          -3.00    -11.48   -8.48  CaCO3
	CH4(g)          -43.41    -46.25   -2.84  CH4
	CO2(g)           -2.15     -3.62   -1.46  CO2
	Dolomite         -5.72    -22.81  -17.09  CaMg(CO3)2
	Fe(OH)3           0.00      4.89    4.89  Fe(OH)3
	Fe(OH)3(a)        0.00      4.89    4.89  Fe(OH)3
	FeS(ppt)        -33.32    -37.23   -3.92  FeS
	Gibbsite          2.69     10.80    8.11  Al(OH)3
	Goethite          5.89      4.89   -1.00  FeOOH
	Gypsum           -0.00     -4.58   -4.58  CaSO4:2H2O
	H2(g)           -16.81    -19.91   -3.10  H2
	H2O(g)           -1.50     -0.00    1.50  H2O
	H2S(g)          -38.78    -46.77   -7.99  H2S
	Halite           -5.93     -4.36    1.57  NaCl
	Hausmannite     -17.70     43.33   61.03  Mn3O4
	Hematite         13.79      9.79   -4.01  Fe2O3
	Jarosite-K       -1.01    -10.22   -9.21  KFe3(SO4)2(OH)6
	Mackinawite     -32.59    -37.23   -4.65  FeS
	Manganite        -8.11     17.23   25.34  MnOOH
	Melanterite      -1.66     -3.87   -2.21  FeSO4:7H2O
	MnO2            -15.77     25.61   41.38  MnO2
	O2(g)           -49.68    -52.57   -2.89  O2
	Pyrite          -48.77    -67.25  -18.48  FeS2
	Pyrochroite      -6.34      8.86   15.20  Mn(OH)2
	Pyrolusite      -15.77     25.61   41.38  MnO2:H2O
	Rhodochrosite    -0.31    -11.44  -11.13  MnCO3
	Siderite          0.13    -10.76  -10.89  FeCO3
	Smithsonite      -3.00    -13.00  -10.00  ZnCO3
	Sphalerite      -27.86    -39.48  -11.62  ZnS
	Sulfur          -27.95    -23.07    4.88  S
	Sylvite          -6.96     -6.06    0.90  KCl
	Zn(OH)2(e)       -4.21      7.29   11.50  Zn(OH)2



Cell 2.

Using solution 2.	Solution after simulation 1.
Using surface 2.	
Using pure phase assemblage 2.	Pure-phase assemblage after simulation 1.

-------------------------------Phase assemblage--------------------------------

                                                      Moles in assemblage
Phase               SI  log IAP  log K(T, P)   Initial       Final       Delta

Al(OH)3(a)        0.00    10.80     10.80    0.000e+00   3.238e-06   3.238e-06
AlOHSO4          -1.64    -3.84     -2.20    0.000e+00           0   0.000e+00
Calcite           0.00    -8.48     -8.48    1.176e-01   8.435e-02  -3.328e-02
Fe(OH)3           0.00     4.89      4.89    7.998e-01   8.196e-01   1.974e-02
Gypsum           -0.00    -4.58     -4.58    2.890e-02   5.998e-02   3.108e-02
MnO2            -16.45    24.93     41.38    9.928e-03           0  -9.928e-03

------------------------------Surface composition------------------------------

Surf          
	  5.161e-16  Surface + diffuse layer charge, eq
	  7.266e-02  Surface charge, eq
	  1.798e-01  sigma, C/m**2
	  7.235e-02  psi, V
	 -2.816e+00  -F*psi/RT
	  5.984e-02  exp(-F*psi/RT)
	  6.000e+02  specific area, m**2/g
	  3.900e+04  m**2 for   6.500e+01 g

	Water in diffuse layer: 3.900e-02 kg, 100.0% of total DDL-water.

	Total moles in diffuse layer (excluding water)

	Element       	     Moles
	Al            	  7.1106e-07
	C             	  3.5240e-03
	Ca            	  4.1925e-05
	Cl            	  1.7470e-03
	Cu            	  1.8367e-06
	Fe            	  1.0055e-04
	H             	  2.9915e-03
	K             	  2.3427e-06
	Mg            	  1.2285e-04
	Mn            	  3.4114e-05
	Na            	  9.0514e-05
	O             	  1.4723e-01
	S             	  3.4294e-02
	Zn            	  1.8843e-06

Surf          
	  1.500e-01  moles
	                                   Mole                     Log
	Species               Moles    Fraction    Molality    Molality

	SurfOH            7.140e-02       0.476   7.157e-02      -1.145
	SurfOH2+          3.931e-02       0.262   3.941e-02      -1.404
	SurfOMn+          3.562e-02       0.237   3.571e-02      -1.447
	SurfO-            2.971e-03       0.020   2.978e-03      -2.526
	SurfOCu+          4.448e-04       0.003   4.459e-04      -3.351
	SurfOZn+          2.500e-04       0.002   2.506e-04      -3.601

-----------------------------Solution composition------------------------------

	Elements           Molality       Moles

	Al                8.484e-06   8.464e-06
	C                 4.350e-02   4.339e-02
	Ca                1.260e-02   1.257e-02
	Cl                1.015e-02   1.013e-02
	Cu                1.015e-05   1.012e-05
	Fe                3.350e-02   3.342e-02
	K                 2.012e-04   2.008e-04
	Mg                1.586e-02   1.583e-02
	Mn                9.858e-03   9.835e-03
	Na                9.471e-03   9.448e-03
	S                 5.634e-02   5.621e-02
	Zn                2.294e-05   2.288e-05

----------------------------Description of solution----------------------------

                                       pH  =   6.326      Charge balance
                                       pe  =   1.216      Adjusted to redox equilibrium
       Specific Conductance (uS/cm, 25 oC) = 7385
                          Density (g/cm3)  =   1.00781
                               Volume (L)  =   1.00717
                        Activity of water  =   0.997
                           Ionic strength  =   1.601e-01
                       Mass of water (kg)  =   9.976e-01
                 Total alkalinity (eq/kg)  =   3.055e-02
                       Total CO2 (mol/kg)  =   4.350e-02
                      Temperature (deg C)  =  25.00
                  Electrical balance (eq)  =   5.022e-16
 Percent error, 100*(Cat-|An|)/(Cat+|An|)  =   0.00
                               Iterations  =   1
                                  Total H  = 1.107770e+02
                                  Total O  = 5.571537e+01

----------------------------Distribution of species----------------------------

                                               Log       Log       Log    mole V
   Species          Molality    Activity  Molality  Activity     Gamma   cm3/mol

   H+              5.852e-07   4.719e-07    -6.233    -6.326    -0.093      0.00
   OH-             2.951e-08   2.139e-08    -7.530    -7.670    -0.140     -3.59
   H2O             5.551e+01   9.974e-01     1.744    -0.001     0.000     18.07
Al            8.484e-06
   Al(OH)4-        3.873e-06   2.883e-06    -5.412    -5.540    -0.128     (0)  
   Al(OH)2+        3.059e-06   2.324e-06    -5.514    -5.634    -0.119     (0)  
   Al(OH)3         6.976e-07   7.238e-07    -6.156    -6.140     0.016     (0)  
   AlOH+2          4.212e-07   1.403e-07    -6.376    -6.853    -0.477    -26.93
   AlSO4+          2.915e-07   2.170e-07    -6.535    -6.664    -0.128     (0)  
   Al(SO4)2-       9.466e-08   7.046e-08    -7.024    -7.152    -0.128     (0)  
   Al+3            4.638e-08   6.683e-09    -7.334    -8.175    -0.841    -43.00
   AlHSO4+2        2.774e-14   9.080e-15   -13.557   -14.042    -0.485     (0)  
C(-4)         1.519e-38
   CH4             1.519e-38   1.576e-38   -37.818   -37.802     0.016     32.22
C(4)          4.350e-02
   HCO3-           1.707e-02   1.297e-02    -1.768    -1.887    -0.119     25.54
   CO2             1.330e-02   1.380e-02    -1.876    -1.860     0.016     30.26
   FeHCO3+         9.006e-03   6.812e-03    -2.045    -2.167    -0.121     (0)  
   MnHCO3+         2.405e-03   1.811e-03    -2.619    -2.742    -0.123     (0)  
   MgHCO3+         6.190e-04   4.549e-04    -3.208    -3.342    -0.134      5.70
   CaHCO3+         5.530e-04   4.253e-04    -3.257    -3.371    -0.114      9.86
   NaHCO3          2.100e-04   2.179e-04    -3.678    -3.662     0.016     19.41
   FeCO3           1.565e-04   1.624e-04    -3.805    -3.789     0.016     (0)  
   MnCO3           1.546e-04   1.604e-04    -3.811    -3.795     0.016     (0)  
   ZnHCO3+         5.826e-06   4.407e-06    -5.235    -5.356    -0.121     (0)  
   CaCO3           5.363e-06   5.565e-06    -5.271    -5.255     0.016    -14.60
   CO3-2           3.870e-06   1.289e-06    -5.412    -5.890    -0.477     -2.73
   MgCO3           3.554e-06   3.687e-06    -5.449    -5.433     0.016    -17.09
   ZnCO3           6.689e-07   6.941e-07    -6.175    -6.159     0.016     (0)  
   CuHCO3+         1.061e-07   8.023e-08    -6.974    -7.096    -0.121     (0)  
   CuCO3           8.235e-08   8.544e-08    -7.084    -7.068     0.016     (0)  
   Zn(CO3)2-2      5.844e-08   1.913e-08    -7.233    -7.718    -0.485     (0)  
   NaCO3-          5.068e-08   3.850e-08    -7.295    -7.415    -0.119      0.09
   Cu(CO3)2-2      4.236e-10   1.387e-10    -9.373    -9.858    -0.485     (0)  
Ca            1.260e-02
   Ca+2            7.516e-03   2.570e-03    -2.124    -2.590    -0.466    -17.29
   CaSO4           4.522e-03   4.692e-03    -2.345    -2.329     0.016      7.50
   CaHCO3+         5.530e-04   4.253e-04    -3.257    -3.371    -0.114      9.86
   CaCO3           5.363e-06   5.565e-06    -5.271    -5.255     0.016    -14.60
   CaHSO4+         1.924e-08   1.455e-08    -7.716    -7.837    -0.121     (0)  
   CaOH+           1.192e-09   9.013e-10    -8.924    -9.045    -0.121     (0)  
Cl            1.015e-02
   Cl-             1.000e-02   7.322e-03    -2.000    -2.135    -0.135     18.42
   FeCl+           7.017e-05   5.308e-05    -4.154    -4.275    -0.121     (0)  
   MnCl+           6.204e-05   4.673e-05    -4.207    -4.330    -0.123      6.61
   CuCl2-          9.093e-06   6.683e-06    -5.041    -5.175    -0.134     (0)  
   CuCl3-2         2.411e-07   7.755e-08    -6.618    -7.110    -0.493     (0)  
   MnCl2           1.439e-07   1.494e-07    -6.842    -6.826     0.016     (0)  
   ZnCl+           7.236e-08   5.318e-08    -7.141    -7.274    -0.134     -1.58
   ZnOHCl          1.333e-09   1.383e-09    -8.875    -8.859     0.016     (0)  
   MnCl3-          3.999e-10   3.012e-10    -9.398    -9.521    -0.123     (0)  
   ZnCl2           3.930e-10   4.078e-10    -9.406    -9.390     0.016     24.06
   CuCl+           3.309e-10   2.432e-10    -9.480    -9.614    -0.134     (0)  
   ZnCl3-          4.558e-12   3.350e-12   -11.341   -11.475    -0.134     54.05
   CuCl2           9.218e-13   9.564e-13   -12.035   -12.019     0.016     (0)  
   ZnCl4-2         3.822e-14   1.229e-14   -13.418   -13.910    -0.493     89.04
   FeCl+2          5.665e-15   1.822e-15   -14.247   -14.739    -0.493     (0)  
   FeCl2+          7.915e-17   5.961e-17   -16.102   -16.225    -0.123     (0)  
   CuCl3-          3.381e-17   2.485e-17   -16.471   -16.605    -0.134     (0)  
   FeCl3           4.207e-20   4.365e-20   -19.376   -19.360     0.016     (0)  
   CuCl4-2         2.835e-21   9.119e-22   -20.547   -21.040    -0.493     (0)  
Cu(1)         9.895e-06
   CuCl2-          9.093e-06   6.683e-06    -5.041    -5.175    -0.134     (0)  
   Cu+             5.613e-07   3.941e-07    -6.251    -6.404    -0.154     (0)  
   CuCl3-2         2.411e-07   7.755e-08    -6.618    -7.110    -0.493     (0)  
Cu(2)         2.509e-07
   CuHCO3+         1.061e-07   8.023e-08    -6.974    -7.096    -0.121     (0)  
   CuCO3           8.235e-08   8.544e-08    -7.084    -7.068     0.016     (0)  
   Cu+2            3.529e-08   1.234e-08    -7.452    -7.909    -0.456    -23.84
   CuSO4           2.494e-08   2.587e-08    -7.603    -7.587     0.016     (0)  
   Cu(OH)2         1.110e-09   1.152e-09    -8.955    -8.939     0.016     (0)  
   Cu(CO3)2-2      4.236e-10   1.387e-10    -9.373    -9.858    -0.485     (0)  
   CuOH+           3.549e-10   2.608e-10    -9.450    -9.584    -0.134     (0)  
   CuCl+           3.309e-10   2.432e-10    -9.480    -9.614    -0.134     (0)  
   CuCl2           9.218e-13   9.564e-13   -12.035   -12.019     0.016     (0)  
   Cu2(OH)2+2      9.095e-14   2.977e-14   -13.041   -13.526    -0.485     (0)  
   Cu(OH)3-        1.939e-16   1.467e-16   -15.712   -15.834    -0.121     (0)  
   CuCl3-          3.381e-17   2.485e-17   -16.471   -16.605    -0.134     (0)  
   CuCl4-2         2.835e-21   9.119e-22   -20.547   -21.040    -0.493     (0)  
   Cu(OH)4-2       1.890e-22   6.185e-23   -21.724   -22.209    -0.485     (0)  
   Cu(HS)3-        0.000e+00   0.000e+00   -86.872   -86.994    -0.121     (0)  
Fe(2)         3.350e-02
   Fe+2            1.502e-02   5.251e-03    -1.823    -2.280    -0.456    -21.29
   FeSO4           9.242e-03   9.589e-03    -2.034    -2.018     0.016     (0)  
   FeHCO3+         9.006e-03   6.812e-03    -2.045    -2.167    -0.121     (0)  
   FeCO3           1.565e-04   1.624e-04    -3.805    -3.789     0.016     (0)  
   FeCl+           7.017e-05   5.308e-05    -4.154    -4.275    -0.121     (0)  
   FeOH+           4.660e-06   3.510e-06    -5.332    -5.455    -0.123     (0)  
   FeHSO4+         3.932e-08   2.974e-08    -7.405    -7.527    -0.121     (0)  
   Fe(OH)2         6.085e-11   6.314e-11   -10.216   -10.200     0.016     (0)  
   Fe(OH)3-        6.583e-15   4.958e-15   -14.182   -14.305    -0.123     (0)  
   Fe(HS)2         0.000e+00   0.000e+00   -63.336   -63.320     0.016     (0)  
   Fe(HS)3-        0.000e+00   0.000e+00   -96.156   -96.278    -0.121     (0)  
Fe(3)         1.247e-07
   Fe(OH)2+        1.036e-07   7.870e-08    -6.985    -7.104    -0.119     (0)  
   Fe(OH)3         2.065e-08   2.143e-08    -7.685    -7.669     0.016     (0)  
   FeOH+2          3.496e-10   1.125e-10    -9.456    -9.949    -0.493     (0)  
   Fe(OH)4-        5.437e-11   4.131e-11   -10.265   -10.384    -0.119     (0)  
   FeSO4+          1.232e-12   9.278e-13   -11.909   -12.033    -0.123     (0)  
   Fe(SO4)2-       2.756e-13   2.084e-13   -12.560   -12.681    -0.121     (0)  
   Fe+3            5.719e-14   8.241e-15   -13.243   -14.084    -0.841     (0)  
   FeCl+2          5.665e-15   1.822e-15   -14.247   -14.739    -0.493     (0)  
   FeCl2+          7.915e-17   5.961e-17   -16.102   -16.225    -0.123     (0)  
   Fe2(OH)2+4      2.965e-17   3.404e-19   -16.528   -18.468    -1.940     (0)  
   FeHSO4+2        3.582e-18   1.172e-18   -17.446   -17.931    -0.485     (0)  
   FeCl3           4.207e-20   4.365e-20   -19.376   -19.360     0.016     (0)  
   Fe3(OH)4+5      6.015e-21   5.597e-24   -20.221   -23.252    -3.031     (0)  
H(0)          1.125e-18
   H2              5.627e-19   5.838e-19   -18.250   -18.234     0.016     28.61
K             2.012e-04
   K+              1.882e-04   1.372e-04    -3.725    -3.863    -0.137      9.31
   KSO4-           1.303e-05   9.897e-06    -4.885    -5.004    -0.119     (0)  
Mg            1.586e-02
   Mg+2            8.289e-03   2.997e-03    -2.082    -2.523    -0.442    -20.99
   MgSO4           6.954e-03   7.215e-03    -2.158    -2.142     0.016      5.84
   MgHCO3+         6.190e-04   4.549e-04    -3.208    -3.342    -0.134      5.70
   MgCO3           3.554e-06   3.687e-06    -5.449    -5.433     0.016    -17.09
   MgOH+           2.963e-08   2.300e-08    -7.528    -7.638    -0.110     (0)  
Mn(2)         9.858e-03
   Mn+2            4.480e-03   1.566e-03    -2.349    -2.805    -0.456    -16.33
   MnSO4           2.757e-03   2.860e-03    -2.560    -2.544     0.016      4.99
   MnHCO3+         2.405e-03   1.811e-03    -2.619    -2.742    -0.123     (0)  
   MnCO3           1.546e-04   1.604e-04    -3.811    -3.795     0.016     (0)  
   MnCl+           6.204e-05   4.673e-05    -4.207    -4.330    -0.123      6.61
   MnCl2           1.439e-07   1.494e-07    -6.842    -6.826     0.016     (0)  
   MnOH+           1.130e-07   8.510e-08    -6.947    -7.070    -0.123     (0)  
   MnCl3-          3.999e-10   3.012e-10    -9.398    -9.521    -0.123     (0)  
   Mn(OH)3-        3.112e-19   2.344e-19   -18.507   -18.630    -0.123     (0)  
Mn(3)         5.520e-27
   Mn+3            5.520e-27   7.955e-28   -26.258   -27.099    -0.841     (0)  
Na            9.471e-03
   Na+             8.808e-03   6.686e-03    -2.055    -2.175    -0.120     -1.01
   NaSO4-          4.529e-04   3.441e-04    -3.344    -3.463    -0.119     19.90
   NaHCO3          2.100e-04   2.179e-04    -3.678    -3.662     0.016     19.41
   NaCO3-          5.068e-08   3.850e-08    -7.295    -7.415    -0.119      0.09
   NaOH            1.379e-20   1.430e-20   -19.861   -19.845     0.016     (0)  
O(0)          0.000e+00
   O2              0.000e+00   0.000e+00   -55.931   -55.915     0.016     30.40
S(-2)         5.419e-35
   H2S             4.023e-35   4.174e-35   -34.395   -34.379     0.016     37.16
   HS-             1.396e-35   1.012e-35   -34.855   -34.995    -0.140     20.95
   S-2             0.000e+00   0.000e+00   -41.094   -41.587    -0.493     (0)  
   Zn(HS)2         0.000e+00   0.000e+00   -60.635   -60.619     0.016     (0)  
   Fe(HS)2         0.000e+00   0.000e+00   -63.336   -63.320     0.016     (0)  
   Cu(HS)3-        0.000e+00   0.000e+00   -86.872   -86.994    -0.121     (0)  
   Zn(HS)3-        0.000e+00   0.000e+00   -94.333   -94.454    -0.121     (0)  
   Fe(HS)3-        0.000e+00   0.000e+00   -96.156   -96.278    -0.121     (0)  
S(6)          5.634e-02
   SO4-2           3.239e-02   1.027e-02    -1.490    -1.989    -0.499     15.40
   FeSO4           9.242e-03   9.589e-03    -2.034    -2.018     0.016     (0)  
   MgSO4           6.954e-03   7.215e-03    -2.158    -2.142     0.016      5.84
   CaSO4           4.522e-03   4.692e-03    -2.345    -2.329     0.016      7.50
   MnSO4           2.757e-03   2.860e-03    -2.560    -2.544     0.016      4.99
   NaSO4-          4.529e-04   3.441e-04    -3.344    -3.463    -0.119     19.90
   KSO4-           1.303e-05   9.897e-06    -4.885    -5.004    -0.119     (0)  
   ZnSO4           6.260e-06   6.495e-06    -5.203    -5.187     0.016     (0)  
   Zn(SO4)2-2      1.656e-06   5.421e-07    -5.781    -6.266    -0.485     (0)  
   HSO4-           6.228e-07   4.711e-07    -6.206    -6.327    -0.121     40.61
   AlSO4+          2.915e-07   2.170e-07    -6.535    -6.664    -0.128     (0)  
   Al(SO4)2-       9.466e-08   7.046e-08    -7.024    -7.152    -0.128     (0)  
   FeHSO4+         3.932e-08   2.974e-08    -7.405    -7.527    -0.121     (0)  
   CuSO4           2.494e-08   2.587e-08    -7.603    -7.587     0.016     (0)  
   CaHSO4+         1.924e-08   1.455e-08    -7.716    -7.837    -0.121     (0)  
   FeSO4+          1.232e-12   9.278e-13   -11.909   -12.033    -0.123     (0)  
   Fe(SO4)2-       2.756e-13   2.084e-13   -12.560   -12.681    -0.121     (0)  
   AlHSO4+2        2.774e-14   9.080e-15   -13.557   -14.042    -0.485     (0)  
   FeHSO4+2        3.582e-18   1.172e-18   -17.446   -17.931    -0.485     (0)  
Zn            2.294e-05
   Zn+2            8.388e-06   2.698e-06    -5.076    -5.569    -0.493    -23.47
   ZnSO4           6.260e-06   6.495e-06    -5.203    -5.187     0.016     (0)  
   ZnHCO3+         5.826e-06   4.407e-06    -5.235    -5.356    -0.121     (0)  
   Zn(SO4)2-2      1.656e-06   5.421e-07    -5.781    -6.266    -0.485     (0)  
   ZnCO3           6.689e-07   6.941e-07    -6.175    -6.159     0.016     (0)  
   ZnCl+           7.236e-08   5.318e-08    -7.141    -7.274    -0.134     -1.58
   Zn(CO3)2-2      5.844e-08   1.913e-08    -7.233    -7.718    -0.485     (0)  
   ZnOH+           8.267e-09   6.253e-09    -8.083    -8.204    -0.121     (0)  
   ZnOHCl          1.333e-09   1.383e-09    -8.875    -8.859     0.016     (0)  
   ZnCl2           3.930e-10   4.078e-10    -9.406    -9.390     0.016     24.06
   Zn(OH)2         1.463e-10   1.517e-10    -9.835    -9.819     0.016     (0)  
   ZnCl3-          4.558e-12   3.350e-12   -11.341   -11.475    -0.134     54.05
   ZnCl4-2         3.822e-14   1.229e-14   -13.418   -13.910    -0.493     89.04
   Zn(OH)3-        1.341e-15   1.014e-15   -14.873   -14.994    -0.121     (0)  
   Zn(OH)4-2       1.038e-21   3.397e-22   -20.984   -21.469    -0.485     (0)  
   Zn(HS)2         0.000e+00   0.000e+00   -60.635   -60.619     0.016     (0)  
   Zn(HS)3-        0.000e+00   0.000e+00   -94.333   -94.454    -0.121     (0)  

------------------------------Saturation indices-------------------------------

	Phase               SI   log IAP   log K(298 K,   1 atm)

	Al(OH)3(a)        0.00     10.80   10.80  Al(OH)3
	AlOHSO4          -1.64     -3.84   -2.20  AlOHSO4
	Alunite           6.99      5.59   -1.40  KAl3(SO4)2(OH)6
	Anhydrite        -0.30     -4.58   -4.28  CaSO4
	Aragonite        -0.14     -8.48   -8.34  CaCO3
	Calcite           0.00     -8.48   -8.48  CaCO3
	CH4(g)          -34.96    -37.80   -2.84  CH4
	CO2(g)           -0.40     -1.86   -1.46  CO2
	Dolomite          0.20    -16.89  -17.09  CaMg(CO3)2
	Fe(OH)3           0.00      4.89    4.89  Fe(OH)3
	Fe(OH)3(a)        0.00      4.89    4.89  Fe(OH)3
	FeS(ppt)        -27.03    -30.95   -3.92  FeS
	Gibbsite          2.69     10.80    8.11  Al(OH)3
	Goethite          5.89      4.89   -1.00  FeOOH
	Gypsum           -0.00     -4.58   -4.58  CaSO4:2H2O
	H2(g)           -15.13    -18.23   -3.10  H2
	H2O(g)           -1.50     -0.00    1.50  H2O
	H2S(g)          -33.33    -41.32   -7.99  H2S
	Halite           -5.88     -4.31    1.57  NaCl
	Hausmannite     -16.41     44.62   61.03  Mn3O4
	Hematite         13.79      9.79   -4.01  Fe2O3
	Jarosite-K       -2.93    -12.14   -9.21  KFe3(SO4)2(OH)6
	Mackinawite     -26.30    -30.95   -4.65  FeS
	Manganite        -7.95     17.39   25.34  MnOOH
	Melanterite      -2.07     -4.28   -2.21  FeSO4:7H2O
	MnO2            -16.45     24.93   41.38  MnO2
	O2(g)           -53.02    -55.91   -2.89  O2
	Pyrite          -38.71    -57.19  -18.48  FeS2
	Pyrochroite      -5.36      9.84   15.20  Mn(OH)2
	Pyrolusite      -16.45     24.93   41.38  MnO2:H2O
	Rhodochrosite     2.44     -8.69  -11.13  MnCO3
	Siderite          2.72     -8.17  -10.89  FeCO3
	Smithsonite      -1.46    -11.46  -10.00  ZnCO3
	Sphalerite      -22.62    -34.24  -11.62  ZnS
	Sulfur          -24.18    -19.30    4.88  S
	Sylvite          -6.90     -6.00    0.90  KCl
	Zn(OH)2(e)       -4.42      7.08   11.50  Zn(OH)2



Cell 3.

Using solution 3.	Solution after simulation 1.
Using surface 3.	
Using pure phase assemblage 3.	Pure-phase assemblage after simulation 1.

-------------------------------Phase assemblage--------------------------------

                                                      Moles in assemblage
Phase               SI  log IAP  log K(T, P)   Initial       Final       Delta

Al(OH)3(a)        0.00    10.80     10.80    2.958e-06   1.830e-06  -1.128e-06
AlOHSO4          -1.39    -3.59     -2.20    0.000e+00           0   0.000e+00
Calcite           0.00    -8.48     -8.48    1.528e-01   1.559e-01   3.069e-03
Fe(OH)3           0.00     4.89      4.89    7.300e-01   7.300e-01   1.642e-08
Gypsum           -0.18    -4.76     -4.58    0.000e+00           0   0.000e+00
MnO2              0.00    41.38     41.38    4.501e-02   4.501e-02  -7.792e-11

------------------------------Surface composition------------------------------

Surf          
	 -6.038e-18  Surface + diffuse layer charge, eq
	  7.023e-02  Surface charge, eq
	  1.738e-01  sigma, C/m**2
	  8.142e-02  psi, V
	 -3.169e+00  -F*psi/RT
	  4.203e-02  exp(-F*psi/RT)
	  6.000e+02  specific area, m**2/g
	  3.900e+04  m**2 for   6.500e+01 g

	Water in diffuse layer: 3.900e-02 kg, 100.0% of total DDL-water.

	Total moles in diffuse layer (excluding water)

	Element       	     Moles
	Al            	  4.3223e-07
	C             	  7.4204e-03
	Ca            	 -2.1406e-04
	Cl            	  2.4911e-03
	Cu            	  1.2169e-12
	Fe            	 -1.7915e-09
	H             	  6.0048e-03
	K             	 -8.8715e-07
	Mg            	 -1.9419e-04
	Mn            	 -1.7818e-04
	Na            	 -5.0098e-05
	O             	  1.4183e-01
	S             	  3.0244e-02
	Zn            	  2.5307e-07

Surf          
	  1.500e-01  moles
	                                   Mole                     Log
	Species               Moles    Fraction    Molality    Molality

	SurfOH            7.498e-02       0.500   7.529e-02      -1.123
	SurfOH2+          5.372e-02       0.358   5.395e-02      -1.268
	SurfOMn+          1.886e-02       0.126   1.894e-02      -1.723
	SurfO-            2.397e-03       0.016   2.407e-03      -2.619
	SurfOZn+          3.918e-05       0.000   3.934e-05      -4.405
	SurfOCu+          7.210e-07       0.000   7.240e-07      -6.140

-----------------------------Solution composition------------------------------

	Elements           Molality       Moles

	Al                1.073e-05   1.068e-05
	C                 6.682e-02   6.654e-02
	Ca                1.248e-02   1.243e-02
	Cl                9.810e-03   9.769e-03
	Cu                1.051e-09   1.047e-09
	Fe                2.073e-07   2.064e-07
	K                 1.982e-04   1.974e-04
	Mg                1.556e-02   1.549e-02
	Mn                1.180e-02   1.175e-02
	Na                9.329e-03   9.290e-03
	S                 2.423e-02   2.413e-02
	Zn                7.719e-06   7.687e-06

----------------------------Description of solution----------------------------

[...]

Al(OH)3(a)       -0.00    10.80     10.80    5.243e-05   4.812e-05  -4.310e-06
AlOHSO4          -3.23    -5.43     -2.20    0.000e+00           0   0.000e+00
Calcite           0.00    -8.48     -8.48    5.754e-02   5.889e-02   1.346e-03
Fe(OH)3           0.00     4.89      4.89    8.188e-01   8.187e-01  -5.384e-05
Gypsum           -0.00    -4.58     -4.58    8.806e-02   8.676e-02  -1.305e-03
MnO2            -19.98    21.40     41.38    0.000e+00           0   0.000e+00

------------------------------Surface composition------------------------------

Surf          
	 -3.681e-17  Surface + diffuse layer charge, eq
	  3.743e-02  Surface charge, eq
	  9.261e-02  sigma, C/m**2
	  5.227e-02  psi, V
	 -2.034e+00  -F*psi/RT
	  1.307e-01  exp(-F*psi/RT)
	  6.000e+02  specific area, m**2/g
	  3.900e+04  m**2 for   6.500e+01 g

	Water in diffuse layer: 3.900e-02 kg, 100.0% of total DDL-water.

	Total moles in diffuse layer (excluding water)

	Element       	     Moles
	Al            	  3.3664e-06
	C             	  4.2667e-04
	Ca            	  1.1831e-04
	Cl            	  1.1466e-03
	Cu            	  7.5236e-05
	Fe            	  5.9198e-04
	H             	  4.1077e-04
	K             	  3.3168e-06
	Mg            	  2.4050e-04
	Mn            	  4.9262e-06
	Na            	  1.3631e-04
	O             	  7.7234e-02
	S             	  1.8988e-02
	Zn            	  3.0655e-09

Surf          
	  1.500e-01  moles
	                                   Mole                     Log
	Species               Moles    Fraction    Molality    Molality

	SurfOH            8.877e-02       0.592   8.882e-02      -1.052
	SurfOMn+          3.288e-02       0.219   3.290e-02      -1.483
	SurfOH2+          1.517e-02       0.101   1.518e-02      -1.819
	SurfO-            1.190e-02       0.079   1.191e-02      -1.924
	SurfOCu+          1.278e-03       0.009   1.278e-03      -2.893
	SurfOZn+          1.034e-05       0.000   1.034e-05      -4.985

-----------------------------Solution composition------------------------------

	Elements           Molality       Moles

	Al                2.878e-05   2.876e-05
	C                 6.995e-03   6.991e-03
	Ca                1.079e-02   1.079e-02
	Cl                9.505e-03   9.499e-03
	Cu                6.437e-04   6.434e-04
	Fe                5.299e-02   5.296e-02
	K                 2.031e-04   2.029e-04
	Mg                1.605e-02   1.604e-02
	Mn                4.243e-04   4.241e-04
	Na                9.546e-03   9.541e-03
	S                 7.714e-02   7.709e-02
	Zn                4.637e-08   4.634e-08

----------------------------Description of solution----------------------------

                                       pH  =   7.174      Charge balance
                                       pe  =  -1.588      Adjusted to redox equilibrium
       Specific Conductance (uS/cm, 25 oC) = 8133
                          Density (g/cm3)  =   1.00914
                               Volume (L)  =   1.00773
                        Activity of water  =   0.998
                           Ionic strength  =   1.838e-01
                       Mass of water (kg)  =   9.994e-01
                 Total alkalinity (eq/kg)  =   7.214e-03
                       Total CO2 (mol/kg)  =   6.995e-03
                      Temperature (deg C)  =  25.00
                  Electrical balance (eq)  =   5.578e-15
 Percent error, 100*(Cat-|An|)/(Cat+|An|)  =   0.00
                               Iterations  =   1
                                  Total H  = 1.109546e+02
                                  Total O  = 5.580328e+01

----------------------------Distribution of species----------------------------

                                               Log       Log       Log    mole V
   Species          Molality    Activity  Molality  Activity     Gamma   cm3/mol

   OH-             2.111e-07   1.506e-07    -6.676    -6.822    -0.146     -3.53
   H+              8.368e-08   6.702e-08    -7.077    -7.174    -0.096      0.00
   H2O             5.551e+01   9.975e-01     1.744    -0.001     0.000     18.07
Al            2.878e-05
   Al(OH)4-        2.763e-05   2.030e-05    -4.559    -4.692    -0.134     (0)  
   Al(OH)3         6.938e-07   7.238e-07    -6.159    -6.140     0.018     (0)  
   Al(OH)2+        4.393e-07   3.300e-07    -6.357    -6.481    -0.124     (0)  
   AlOH+2          8.881e-09   2.829e-09    -8.052    -8.548    -0.497    -26.89
   AlSO4+          1.063e-09   7.813e-10    -8.973    -9.107    -0.134     (0)  
   Al(SO4)2-       4.341e-10   3.190e-10    -9.362    -9.496    -0.134     (0)  
   Al+3            1.412e-10   1.914e-11    -9.850   -10.718    -0.868    -42.95
   AlHSO4+2        1.467e-17   4.643e-18   -16.833   -17.333    -0.500     (0)  
C(-4)         1.692e-24
   CH4             1.692e-24   1.765e-24   -23.772   -23.753     0.018     32.22
C(4)          6.995e-03
   HCO3-           3.084e-03   2.317e-03    -2.511    -2.635    -0.124     25.65
   FeHCO3+         2.953e-03   2.215e-03    -2.530    -2.655    -0.125     (0)  
   FeCO3           3.564e-04   3.718e-04    -3.448    -3.430     0.018     (0)  
   CO2             3.355e-04   3.500e-04    -3.474    -3.456     0.018     30.26
   MgHCO3+         1.036e-04   7.506e-05    -3.985    -4.125    -0.140      5.71
   CaHCO3+         7.935e-05   6.040e-05    -4.100    -4.219    -0.119      9.87
   NaHCO3          3.747e-05   3.909e-05    -4.426    -4.408     0.018     19.41
   MnHCO3+         2.098e-05   1.561e-05    -4.678    -4.807    -0.128     (0)  
   MnCO3           9.331e-06   9.735e-06    -5.030    -5.012     0.018     (0)  
   CaCO3           5.334e-06   5.565e-06    -5.273    -5.255     0.018    -14.60
   CO3-2           5.090e-06   1.621e-06    -5.293    -5.790    -0.497     -2.59
   MgCO3           4.106e-06   4.284e-06    -5.387    -5.368     0.018    -17.09
   NaCO3-          6.474e-08   4.864e-08    -7.189    -7.313    -0.124      0.17
   CuCO3           1.547e-08   1.614e-08    -7.811    -7.792     0.018     (0)  
   CuHCO3+         2.870e-09   2.152e-09    -8.542    -8.667    -0.125     (0)  
   ZnHCO3+         2.269e-09   1.702e-09    -8.644    -8.769    -0.125     (0)  
   ZnCO3           1.809e-09   1.887e-09    -8.743    -8.724     0.018     (0)  
   Zn(CO3)2-2      2.067e-10   6.542e-11    -9.685   -10.184    -0.500     (0)  
   Cu(CO3)2-2      1.041e-10   3.294e-11    -9.983   -10.482    -0.500     (0)  
Ca            1.079e-02
   Ca+2            6.211e-03   2.043e-03    -2.207    -2.690    -0.483    -17.24
   CaSO4           4.496e-03   4.691e-03    -2.347    -2.329     0.018      7.50
   CaHCO3+         7.935e-05   6.040e-05    -4.100    -4.219    -0.119      9.87
   CaCO3           5.334e-06   5.565e-06    -5.273    -5.255     0.018    -14.60
   CaOH+           6.728e-09   5.046e-09    -8.172    -8.297    -0.125     (0)  
   CaHSO4+         2.755e-09   2.066e-09    -8.560    -8.685    -0.125     (0)  
Cl            9.505e-03
   Cl-             8.207e-03   5.924e-03    -2.086    -2.227    -0.142     18.44
   CuCl2-          5.763e-04   4.176e-04    -3.239    -3.379    -0.140     (0)  
   FeCl+           1.042e-04   7.817e-05    -3.982    -4.107    -0.125     (0)  
   CuCl3-2         1.278e-05   3.921e-06    -4.893    -5.407    -0.513     (0)  
   MnCl+           2.451e-06   1.824e-06    -5.611    -5.739    -0.128      6.63
   MnCl2           4.522e-09   4.717e-09    -8.345    -8.326     0.018     (0)  
   ZnCl+           1.284e-10   9.302e-11    -9.892   -10.031    -0.140     -1.57
   CuCl+           4.078e-11   2.955e-11   -10.390   -10.529    -0.140     (0)  
   ZnOHCl          1.633e-11   1.703e-11   -10.787   -10.769     0.018     (0)  
   MnCl3-          1.034e-11   7.697e-12   -10.985   -11.114    -0.128     (0)  
   ZnCl2           5.531e-13   5.770e-13   -12.257   -12.239     0.018     24.06
   CuCl2           9.012e-14   9.402e-14   -13.045   -13.027     0.018     (0)  
   ZnCl3-          5.293e-15   3.835e-15   -14.276   -14.416    -0.140     54.08
   ZnCl4-2         3.713e-17   1.139e-17   -16.430   -16.944    -0.513     89.15
   FeCl+2          1.376e-17   4.222e-18   -16.861   -17.375    -0.513     (0)  
   CuCl3-          2.727e-18   1.976e-18   -17.564   -17.704    -0.140     (0)  
   FeCl2+          1.501e-19   1.117e-19   -18.824   -18.952    -0.128     (0)  
   CuCl4-2         1.913e-22   5.868e-23   -21.718   -22.232    -0.513     (0)  
   FeCl3           6.344e-23   6.618e-23   -22.198   -22.179     0.018     (0)  
Cu(1)         6.437e-04
   CuCl2-          5.763e-04   4.176e-04    -3.239    -3.379    -0.140     (0)  
   Cu+             5.461e-05   3.763e-05    -4.263    -4.424    -0.162     (0)  
   CuCl3-2         1.278e-05   3.921e-06    -4.893    -5.407    -0.513     (0)  
Cu(2)         3.729e-08
   CuCO3           1.547e-08   1.614e-08    -7.811    -7.792     0.018     (0)  
   Cu(OH)2         8.223e-09   8.578e-09    -8.085    -8.067     0.018     (0)  
   Cu+2            5.521e-09   1.853e-09    -8.258    -8.732    -0.474    -23.80
   CuSO4           4.683e-09   4.886e-09    -8.329    -8.311     0.018     (0)  
   CuHCO3+         2.870e-09   2.152e-09    -8.542    -8.667    -0.125     (0)  
   CuOH+           3.807e-10   2.758e-10    -9.419    -9.559    -0.140     (0)  
   Cu(CO3)2-2      1.041e-10   3.294e-11    -9.983   -10.482    -0.500     (0)  
   CuCl+           4.078e-11   2.955e-11   -10.390   -10.529    -0.140     (0)  
   Cu2(OH)2+2      1.052e-13   3.330e-14   -12.978   -13.478    -0.500     (0)  
   CuCl2           9.012e-14   9.402e-14   -13.045   -13.027     0.018     (0)  
   Cu(OH)3-        1.026e-14   7.693e-15   -13.989   -14.114    -0.125     (0)  
   CuCl3-          2.727e-18   1.976e-18   -17.564   -17.704    -0.140     (0)  
   Cu(OH)4-2       7.219e-20   2.285e-20   -19.141   -19.641    -0.500     (0)  
   CuCl4-2         1.913e-22   5.868e-23   -21.718   -22.232    -0.513     (0)  
   Cu(HS)3-        0.000e+00   0.000e+00   -43.002   -43.127    -0.125     (0)  
Fe(2)         5.299e-02
   Fe+2            2.848e-02   9.559e-03    -1.546    -2.020    -0.474    -21.25
   FeSO4           2.104e-02   2.195e-02    -1.677    -1.659     0.018     (0)  
   FeHCO3+         2.953e-03   2.215e-03    -2.530    -2.655    -0.125     (0)  
   FeCO3           3.564e-04   3.718e-04    -3.448    -3.430     0.018     (0)  
   FeCl+           1.042e-04   7.817e-05    -3.982    -4.107    -0.125     (0)  
   FeOH+           6.046e-05   4.499e-05    -4.219    -4.347    -0.128     (0)  
   FeHSO4+         1.289e-08   9.669e-09    -7.890    -8.015    -0.125     (0)  
   Fe(OH)2         5.464e-09   5.700e-09    -8.263    -8.244     0.018     (0)  
   Fe(OH)3-        4.235e-12   3.152e-12   -11.373   -11.501    -0.128     (0)  
   Fe(HS)2         5.193e-34   5.418e-34   -33.285   -33.266     0.018     (0)  
   Fe(HS)3-        0.000e+00   0.000e+00   -51.203   -51.327    -0.125     (0)  
Fe(3)         3.581e-08
   Fe(OH)3         2.054e-08   2.143e-08    -7.687    -7.669     0.018     (0)  
   Fe(OH)2+        1.488e-08   1.118e-08    -7.828    -7.952    -0.124     (0)  
   Fe(OH)4-        3.872e-10   2.909e-10    -9.412    -9.536    -0.124     (0)  
   FeOH+2          7.393e-12   2.268e-12   -11.131   -11.644    -0.513     (0)  
   FeSO4+          4.489e-15   3.341e-15   -14.348   -14.476    -0.128     (0)  
   Fe(SO4)2-       1.258e-15   9.436e-16   -14.900   -15.025    -0.125     (0)  
   Fe+3            1.741e-16   2.360e-17   -15.759   -16.627    -0.868     (0)  
   FeCl+2          1.376e-17   4.222e-18   -16.861   -17.375    -0.513     (0)  
   FeCl2+          1.501e-19   1.117e-19   -18.824   -18.952    -0.128     (0)  
   Fe2(OH)2+4      1.380e-20   1.384e-22   -19.860   -21.859    -1.999     (0)  
   FeHSO4+2        1.895e-21   5.995e-22   -20.722   -21.222    -0.500     (0)  
   FeCl3           6.344e-23   6.618e-23   -22.198   -22.179     0.018     (0)  
   Fe3(OH)4+5      4.290e-25   3.232e-28   -24.368   -27.491    -3.123     (0)  
H(0)          9.124e-15
   H2              4.562e-15   4.759e-15   -14.341   -14.322     0.018     28.61
K             2.031e-04
   K+              1.869e-04   1.342e-04    -3.729    -3.872    -0.144      9.33
   KSO4-           1.621e-05   1.218e-05    -4.790    -4.915    -0.124     (0)  
Mg            1.605e-02
   MgSO4           8.032e-03   8.379e-03    -2.095    -2.077     0.018      5.84
   Mg+2            7.913e-03   2.769e-03    -2.102    -2.558    -0.456    -20.95
   MgHCO3+         1.036e-04   7.506e-05    -3.985    -4.125    -0.140      5.71
   MgCO3           4.106e-06   4.284e-06    -5.387    -5.368     0.018    -17.09
   MgOH+           1.946e-07   1.496e-07    -6.711    -6.825    -0.114     (0)  
Mn(2)         4.243e-04
   Mn+2            2.252e-04   7.558e-05    -3.648    -4.122    -0.474    -16.30
   MnSO4           1.663e-04   1.735e-04    -3.779    -3.761     0.018      4.99
   MnHCO3+         2.098e-05   1.561e-05    -4.678    -4.807    -0.128     (0)  
   MnCO3           9.331e-06   9.735e-06    -5.030    -5.012     0.018     (0)  
   MnCl+           2.451e-06   1.824e-06    -5.611    -5.739    -0.128      6.63
   MnOH+           3.885e-08   2.892e-08    -7.411    -7.539    -0.128     (0)  
   MnCl2           4.522e-09   4.717e-09    -8.345    -8.326     0.018     (0)  
   MnCl3-          1.034e-11   7.697e-12   -10.985   -11.114    -0.128     (0)  
   Mn(OH)3-        5.307e-18   3.950e-18   -17.275   -17.403    -0.128     (0)  
Mn(3)         4.454e-31
   Mn+3            4.454e-31   6.037e-32   -30.351   -31.219    -0.868     (0)  
Na            9.546e-03
   Na+             8.930e-03   6.715e-03    -2.049    -2.173    -0.124     -0.98
   NaSO4-          5.784e-04   4.346e-04    -3.238    -3.362    -0.124     20.06
   NaHCO3          3.747e-05   3.909e-05    -4.426    -4.408     0.018     19.41
   NaCO3-          6.474e-08   4.864e-08    -7.189    -7.313    -0.124      0.17
   NaOH            9.697e-20   1.012e-19   -19.013   -18.995     0.018     (0)  
O(0)          0.000e+00
   O2              0.000e+00   0.000e+00   -63.756   -63.737     0.018     30.40
S(-2)         1.565e-20
   HS-             1.117e-20   7.975e-21   -19.952   -20.098    -0.146     20.98
   H2S             4.479e-21   4.673e-21   -20.349   -20.330     0.018     37.16
   S-2             4.685e-26   1.437e-26   -25.329   -25.843    -0.513     (0)  
   Fe(HS)2         5.193e-34   5.418e-34   -33.285   -33.266     0.018     (0)  
   Zn(HS)2         3.097e-34   3.231e-34   -33.509   -33.491     0.018     (0)  
   Cu(HS)3-        0.000e+00   0.000e+00   -43.002   -43.127    -0.125     (0)  
   Fe(HS)3-        0.000e+00   0.000e+00   -51.203   -51.327    -0.125     (0)  
   Zn(HS)3-        0.000e+00   0.000e+00   -52.304   -52.429    -0.125     (0)  
S(6)          7.714e-02
   SO4-2           4.281e-02   1.291e-02    -1.368    -1.889    -0.521     15.51
   FeSO4           2.104e-02   2.195e-02    -1.677    -1.659     0.018     (0)  
   MgSO4           8.032e-03   8.379e-03    -2.095    -2.077     0.018      5.84
   CaSO4           4.496e-03   4.691e-03    -2.347    -2.329     0.018      7.50
   NaSO4-          5.784e-04   4.346e-04    -3.238    -3.362    -0.124     20.06
   MnSO4           1.663e-04   1.735e-04    -3.779    -3.761     0.018      4.99
   KSO4-           1.621e-05   1.218e-05    -4.790    -4.915    -0.124     (0)  
   HSO4-           1.122e-07   8.413e-08    -6.950    -7.075    -0.125     40.64
   ZnSO4           1.692e-08   1.766e-08    -7.771    -7.753     0.018     (0)  
   FeHSO4+         1.289e-08   9.669e-09    -7.890    -8.015    -0.125     (0)  
   Zn(SO4)2-2      5.855e-09   1.853e-09    -8.232    -8.732    -0.500     (0)  
   CuSO4           4.683e-09   4.886e-09    -8.329    -8.311     0.018     (0)  
   CaHSO4+         2.755e-09   2.066e-09    -8.560    -8.685    -0.125     (0)  
   AlSO4+          1.063e-09   7.813e-10    -8.973    -9.107    -0.134     (0)  
   Al(SO4)2-       4.341e-10   3.190e-10    -9.362    -9.496    -0.134     (0)  
   FeSO4+          4.489e-15   3.341e-15   -14.348   -14.476    -0.128     (0)  
   Fe(SO4)2-       1.258e-15   9.436e-16   -14.900   -15.025    -0.125     (0)  
   AlHSO4+2        1.467e-17   4.643e-18   -16.833   -17.333    -0.500     (0)  
   FeHSO4+2        1.895e-21   5.995e-22   -20.722   -21.222    -0.500     (0)  
Zn            4.637e-08
   Zn+2            1.902e-08   5.833e-09    -7.721    -8.234    -0.513    -23.43
   ZnSO4           1.692e-08   1.766e-08    -7.771    -7.753     0.018     (0)  
   Zn(SO4)2-2      5.855e-09   1.853e-09    -8.232    -8.732    -0.500     (0)  
   ZnHCO3+         2.269e-09   1.702e-09    -8.644    -8.769    -0.125     (0)  
   ZnCO3           1.809e-09   1.887e-09    -8.743    -8.724     0.018     (0)  
   Zn(CO3)2-2      2.067e-10   6.542e-11    -9.685   -10.184    -0.500     (0)  
   ZnCl+           1.284e-10   9.302e-11    -9.892   -10.031    -0.140     -1.57
   ZnOH+           1.269e-10   9.520e-11    -9.896   -10.021    -0.125     (0)  
   ZnOHCl          1.633e-11   1.703e-11   -10.787   -10.769     0.018     (0)  
   Zn(OH)2         1.559e-11   1.627e-11   -10.807   -10.789     0.018     (0)  
   ZnCl2           5.531e-13   5.770e-13   -12.257   -12.239     0.018     24.06
   ZnCl3-          5.293e-15   3.835e-15   -14.276   -14.416    -0.140     54.08
   Zn(OH)3-        1.021e-15   7.657e-16   -14.991   -15.116    -0.125     (0)  
   ZnCl4-2         3.713e-17   1.139e-17   -16.430   -16.944    -0.513     89.15
   Zn(OH)4-2       5.708e-21   1.806e-21   -20.244   -20.743    -0.500     (0)  
   Zn(HS)2         3.097e-34   3.231e-34   -33.509   -33.491     0.018     (0)  
   Zn(HS)3-        0.000e+00   0.000e+00   -52.304   -52.429    -0.125     (0)  

------------------------------Saturation indices-------------------------------

	Phase               SI   log IAP   log K(298 K,   1 atm)

	Al(OH)3(a)       -0.00     10.80   10.80  Al(OH)3
	AlOHSO4          -3.23     -5.43   -2.20  AlOHSO4
	Alunite           4.63      3.23   -1.40  KAl3(SO4)2(OH)6
	Anhydrite        -0.30     -4.58   -4.28  CaSO4
	Aragonite        -0.14     -8.48   -8.34  CaCO3
	Calcite           0.00     -8.48   -8.48  CaCO3
	CH4(g)          -20.91    -23.75   -2.84  CH4
	CO2(g)           -2.00     -3.46   -1.46  CO2
	Dolomite          0.26    -16.83  -17.09  CaMg(CO3)2
	Fe(OH)3           0.00      4.89    4.89  Fe(OH)3
	Fe(OH)3(a)        0.00      4.89    4.89  Fe(OH)3
	FeS(ppt)        -11.03    -14.94   -3.92  FeS
	Gibbsite          2.69     10.80    8.11  Al(OH)3
	Goethite          5.89      4.89   -1.00  FeOOH
	Gypsum           -0.00     -4.58   -4.58  CaSO4:2H2O
	H2(g)           -11.22    -14.32   -3.10  H2
	H2O(g)           -1.50     -0.00    1.50  H2O
	H2S(g)          -19.28    -27.27   -7.99  H2S
	Halite           -5.97     -4.40    1.57  NaCl
	Hausmannite     -19.18     41.85   61.03  Mn3O4
	Hematite         13.79      9.79   -4.01  Fe2O3
	Jarosite-K       -5.29    -14.50   -9.21  KFe3(SO4)2(OH)6
	Mackinawite     -10.30    -14.94   -4.65  FeS
	Manganite        -9.53     15.81   25.34  MnOOH
	Melanterite      -1.71     -3.92   -2.21  FeSO4:7H2O
	MnO2            -19.98     21.40   41.38  MnO2
	O2(g)           -60.84    -63.74   -2.89  O2
	Pyrite          -12.56    -31.04  -18.48  FeS2
	Pyrochroite      -4.98     10.22   15.20  Mn(OH)2
	Pyrolusite      -19.98     21.40   41.38  MnO2:H2O
	Rhodochrosite     1.22     -9.91  -11.13  MnCO3
	Siderite          3.08     -7.81  -10.89  FeCO3
	Smithsonite      -4.02    -14.02  -10.00  ZnCO3
	Sphalerite       -9.54    -21.16  -11.62  ZnS
	Sulfur          -14.04     -9.16    4.88  S
	Sylvite          -7.00     -6.10    0.90  KCl
	Zn(OH)2(e)       -5.39      6.11   11.50  Zn(OH)2


------------------
End of simulation.
------------------

------------------------------------
Reading input data for simulation 2.
------------------------------------

------------------------------
End of Run after 5.16 Seconds.
------------------------------

