WARNING: Database file from DATABASE keyword is used; command line argument ignored.
   Input file: transport.dl
  Output file: transport.dl.out
Database file: ../database/phreeqc.dat

------------------
Reading data base.
------------------

	SOLUTION_MASTER_SPECIES
	SOLUTION_SPECIES
	PHASES
	EXCHANGE_MASTER_SPECIES
	EXCHANGE_SPECIES
	SURFACE_MASTER_SPECIES
	SURFACE_SPECIES
	CALCULATE_VALUES
	RATES
	END
------------------------------------
Reading input data for simulation 1.
------------------------------------

	DATABASE ../database/phreeqc.dat
	SELECTED_OUTPUT 101
	    file                 transport.dl_101.sel
	USER_PUNCH 101
	    headings Mu SC
	    start
	10 PUNCH STR_F$(MU, 20, 12)
	20 PUNCH STR_F$(SC, 20, 10)
	    end
	knobs
		logfile
	PRINT
		status false
	SOLUTION 0
		ph	3.3
		temp	25
		units mmol/l
		Ca	11.6
		Mg	15.8
		Na	9.4
		K	0.2
		Fe	52.4
		Mn	1.34
		Al	10.5
		Cu	2.4
		Zn	0.33
		S(6)	100 	charge
		Cl	9.5
		C(4)	0.1	CO2(g)  -3.5
	SOLUTION 1-5
		ph	7.19
		temp	25
		units mmol/l
		O(0)	0.22
		Ca	1.2	charge
		Mg	0.37
		Na	0.96
		K	0.03
		Fe	3.5e-7	mol/l
		Mn	1.0e-7	mol/l
		Al	1.8e-6  mol/l
		Cu	1.5e-7	mol/l
		Zn	2.5e-7	mol/l
		S(6)	0.7
		Cl	0.48
		Alkalinity	2.3
	SURFACE 1-5
		diffuse_layer  1e-9  # takes 10 time longer, calculates diffuse layer composition
		SurfOH	0.15	600.	65.
	PURE_PHASES 1-5
		MnO2		0.0	0.045
		Fe(OH)3		0.0	0.73
		Calcite		0.0	0.14
		Gypsum 		0.0	0.0
		Al(OH)3(a)	0.0	0.0
		AlOHSO4		0.0	0.0
	USE PURE_PHASES none
	USE SURFACE none
	ADVECTION
		cells 		5
		shifts		25
		print_frequency	5
	SURFACE_MASTER_SPECIES
		Surf	SurfOH
	SURFACE_SPECIES
		SurfOH = SurfOH
		log_k	0.0
		SurfOH  + H+ = SurfOH2+
		log_k	7.29
		SurfOH = SurfO- + H+
		log_k	-8.93
		SurfOH + Cu+2 = SurfOCu+ + H+
		log_k	0.6
		SurfOH + Zn+2 = SurfOZn+ + H+
		log_k	-1.99
		SurfOH + Mn+2 = SurfOMn+ + H+
		log_k	-2.6
	PHASES
		Fe(OH)3
		Fe(OH)3 + 3 H+ = Fe+3 + 3 H2O                                                 
		log_k	4.891
		MnO2
		MnO2 + 4 H+ + 2 e- = Mn+2 + 2 H2O                                          
		log_k		41.380
		delta_h	-65.110 kcal
		Al(OH)3(a)
		Al(OH)3 + 3H+ = Al+3 + 3H2O 
		log_k		10.8
		delta_h	-26.5 kcal
		AlOHSO4
		AlOHSO4 + H+ = Al+3 + SO4-2 + H2O 
		log_k	-2.2
	END
-------------------------------------------
Beginning of initial solution calculations.
-------------------------------------------

Initial solution 0.	

-----------------------------Solution composition------------------------------

	Elements           Molality       Moles

	Al                1.065e-02   1.065e-02
	C(4)              1.045e-05   1.045e-05  Equilibrium with CO2(g)
	Ca                1.177e-02   1.177e-02
	Cl                9.640e-03   9.640e-03
	Cu                2.435e-03   2.435e-03
	Fe                5.317e-02   5.317e-02
	K                 2.029e-04   2.029e-04
	Mg                1.603e-02   1.603e-02
	Mn                1.360e-03   1.360e-03
	Na                9.538e-03   9.538e-03
	S(6)              1.018e-01   1.018e-01  Charge balance
	Zn                3.348e-04   3.348e-04

----------------------------Description of solution----------------------------

                                       pH  =   3.300    
                                       pe  =   4.000    
      Specific Conductance (µS/cm,  25°C)  = 11288
                          Density (g/cm³)  =   1.01071
                               Volume (L)  =   1.00396
                        Viscosity (mPa s)  =   0.91468
                        Activity of water  =   0.997
                 Ionic strength (mol/kgw)  =   2.084e-01
                       Mass of water (kg)  =   1.000e+00
                 Total alkalinity (eq/kg)  =  -1.638e-03
                       Total CO2 (mol/kg)  =   1.045e-05
                         Temperature (°C)  =  25.00
                  Electrical balance (eq)  =  -5.607e-17
 Percent error, 100*(Cat-|An|)/(Cat+|An|)  =  -0.00
                               Iterations  =  10
                                  Total H  = 1.110141e+02
                                  Total O  = 5.591333e+01

----------------------------Distribution of species----------------------------

                                               Log       Log       Log    mole V
   Species          Molality    Activity  Molality  Activity     Gamma   cm³/mol

   H+              6.296e-04   5.012e-04    -3.201    -3.300    -0.099      0.00
   OH-             2.862e-11   2.014e-11   -10.543   -10.696    -0.153     -3.48
   H2O             5.551e+01   9.972e-01     1.744    -0.001     0.000     18.07
Al            1.065e-02
   AlSO4+          6.821e-03   4.953e-03    -2.166    -2.305    -0.139     (0)  
   Al(SO4)2-       2.924e-03   2.123e-03    -2.534    -2.673    -0.139     (0)  
   Al+3            9.004e-04   1.155e-04    -3.046    -3.937    -0.892    -40.80
   AlOH+2          7.466e-06   2.283e-06    -5.127    -5.641    -0.515    -26.92
   AlHSO4+2        7.153e-07   2.201e-07    -6.146    -6.657    -0.512     (0)  
   Al(OH)2+        4.788e-08   3.561e-08    -7.320    -7.448    -0.129     (0)  
   Al(OH)3         9.949e-12   1.044e-11   -11.002   -10.981     0.021     (0)  
   Al(OH)4-        5.391e-14   3.915e-14   -13.268   -13.407    -0.139     (0)  
C(4)          1.045e-05
   CO2             1.043e-05   1.076e-05    -4.982    -4.968     0.014     34.43
   HCO3-           1.281e-08   9.523e-09    -7.893    -8.021    -0.129     25.15
   FeHCO3+         1.256e-08   9.355e-09    -7.901    -8.029    -0.128     (0)  
   CuHCO3+         2.305e-09   1.717e-09    -8.637    -8.765    -0.128     (0)  
   MgHCO3+         3.779e-10   2.703e-10    -9.423    -9.568    -0.146      5.72
   CaHCO3+         3.476e-10   2.621e-10    -9.459    -9.581    -0.123      9.88
   MnHCO3+         2.890e-10   2.127e-10    -9.539    -9.672    -0.133     (0)  
   ZnHCO3+         7.094e-11   5.284e-11   -10.149   -10.277    -0.128     (0)  
   NaHCO3          4.391e-11   4.833e-11   -10.357   -10.316     0.042     31.73
   (CO2)2          2.026e-12   2.125e-12   -11.693   -11.673     0.021     68.87
   CuCO3           1.641e-12   1.721e-12   -11.785   -11.764     0.021     (0)  
   KHCO3           5.163e-13   5.187e-13   -12.287   -12.285     0.002     41.03
   FeCO3           2.002e-13   2.100e-13   -12.699   -12.678     0.021     (0)  
   MnCO3           1.691e-14   1.774e-14   -13.772   -13.751     0.021     (0)  
   ZnCO3           7.469e-15   7.836e-15   -14.127   -14.106     0.021     (0)  
   CaCO3           3.078e-15   3.230e-15   -14.512   -14.491     0.021    -14.60
   CO3-2           2.914e-15   8.911e-16   -14.536   -15.050    -0.515     -2.18
   MgCO3           1.966e-15   2.063e-15   -14.706   -14.686     0.021    -17.09
   Cu(CO3)2-2      6.275e-24   1.931e-24   -23.202   -23.714    -0.512     (0)  
   Zn(CO3)2-2      4.851e-25   1.493e-25   -24.314   -24.826    -0.512     (0)  
Ca            1.177e-02
   Ca+2            6.789e-03   2.158e-03    -2.168    -2.666    -0.498    -17.20
   CaSO4           4.958e-03   5.202e-03    -2.305    -2.284     0.021      7.50
   CaHSO4+         2.301e-05   1.714e-05    -4.638    -4.766    -0.128     (0)  
   CaHCO3+         3.476e-10   2.621e-10    -9.459    -9.581    -0.123      9.88
   CaOH+           9.566e-13   7.125e-13   -12.019   -12.147    -0.128     (0)  
   CaCO3           3.078e-15   3.230e-15   -14.512   -14.491     0.021    -14.60
Cl            9.640e-03
   Cl-             8.822e-03   6.286e-03    -2.054    -2.202    -0.147     18.47
   CuCl2-          3.298e-04   2.359e-04    -3.482    -3.627    -0.146     (0)  
   FeCl+           1.145e-04   8.524e-05    -3.941    -4.069    -0.128     (0)  
   MnCl+           8.719e-06   6.419e-06    -5.060    -5.193    -0.133     -2.87
   CuCl+           8.508e-06   6.085e-06    -5.070    -5.216    -0.146      1.15
   CuCl3-2         8.003e-06   2.350e-06    -5.097    -5.629    -0.532     (0)  
   ZnCl+           1.043e-06   7.457e-07    -5.982    -6.127    -0.146    -14.40
   HCl             8.848e-07   1.085e-06    -6.053    -5.964     0.089     (0)  
   CuCl2           1.958e-08   2.054e-08    -7.708    -7.687     0.021     31.02
   MnCl2           1.679e-08   1.761e-08    -7.775    -7.754     0.021     85.89
   ZnCl2           4.678e-09   4.908e-09    -8.330    -8.309     0.021    102.03
   ZnCl3-          4.840e-11   3.462e-11   -10.315   -10.461    -0.146     15.77
   MnCl3-          4.142e-11   3.049e-11   -10.383   -10.516    -0.133     44.27
   ZnOHCl          1.740e-11   1.825e-11   -10.759   -10.739     0.021     (0)  
   FeCl+2          6.066e-12   1.781e-12   -11.217   -11.749    -0.532     (0)  
   CuCl3-          6.406e-13   4.582e-13   -12.193   -12.339    -0.146     (0)  
   ZnCl4-2         3.715e-13   1.091e-13   -12.430   -12.962    -0.532    147.44
   FeCl2+          6.794e-14   5.001e-14   -13.168   -13.301    -0.133     (0)  
   CuCl4-2         4.916e-17   1.443e-17   -16.308   -16.841    -0.532     (0)  
   FeCl3           2.996e-17   3.143e-17   -16.523   -16.503     0.021     (0)  
Cu(1)         3.656e-04
   CuCl2-          3.298e-04   2.359e-04    -3.482    -3.627    -0.146     (0)  
   Cu+             2.788e-05   1.888e-05    -4.555    -4.724    -0.169     (0)  
   CuCl3-2         8.003e-06   2.350e-06    -5.097    -5.629    -0.532     (0)  
Cu(2)         2.070e-03
   Cu+2            1.112e-03   3.597e-04    -2.954    -3.444    -0.490    -25.74
   CuSO4           9.490e-04   9.957e-04    -3.023    -3.002     0.021     13.09
   CuCl+           8.508e-06   6.085e-06    -5.070    -5.216    -0.146      1.15
   CuCl2           1.958e-08   2.054e-08    -7.708    -7.687     0.021     31.02
   CuOH+           1.001e-08   7.157e-09    -8.000    -8.145    -0.146     (0)  
   CuHCO3+         2.305e-09   1.717e-09    -8.637    -8.765    -0.128     (0)  
   Cu2(OH)2+2      7.284e-11   2.241e-11   -10.138   -10.650    -0.512     (0)  
   Cu(OH)2         2.836e-11   2.975e-11   -10.547   -10.526     0.021     (0)  
   CuCO3           1.641e-12   1.721e-12   -11.785   -11.764     0.021     (0)  
   CuCl3-          6.406e-13   4.582e-13   -12.193   -12.339    -0.146     (0)  
   CuCl4-2         4.916e-17   1.443e-17   -16.308   -16.841    -0.532     (0)  
   Cu(OH)3-        4.789e-21   3.567e-21   -20.320   -20.448    -0.128     (0)  
   Cu(CO3)2-2      6.275e-24   1.931e-24   -23.202   -23.714    -0.512     (0)  
   Cu(OH)4-2       4.602e-30   1.416e-30   -29.337   -29.849    -0.512     (0)  
Fe(2)         5.317e-02
   Fe+2            3.037e-02   9.824e-03    -1.517    -2.008    -0.490    -21.23
   FeSO4           2.258e-02   2.369e-02    -1.646    -1.626     0.021     18.97
   FeCl+           1.145e-04   8.524e-05    -3.941    -4.069    -0.128     (0)  
   FeHSO4+         1.048e-04   7.803e-05    -3.980    -4.108    -0.128     (0)  
   FeHCO3+         1.256e-08   9.355e-09    -7.901    -8.029    -0.128     (0)  
   FeOH+           8.397e-09   6.181e-09    -8.076    -8.209    -0.133     (0)  
   FeCO3           2.002e-13   2.100e-13   -12.699   -12.678     0.021     (0)  
   Fe(OH)2         9.978e-17   1.047e-16   -16.001   -15.980     0.021     (0)  
   Fe(OH)3-        1.051e-23   7.739e-24   -22.978   -23.111    -0.133     (0)  
Fe(3)         3.053e-09
   FeSO4+          1.895e-09   1.395e-09    -8.722    -8.856    -0.133     (0)  
   Fe(SO4)2-       5.555e-10   4.137e-10    -9.255    -9.383    -0.128     (0)  
   FeOH+2          4.105e-10   1.205e-10    -9.387    -9.919    -0.532     (0)  
   Fe(OH)2+        1.068e-10   7.941e-11    -9.971   -10.100    -0.129     (0)  
   Fe+3            7.313e-11   9.382e-12   -10.136   -11.028    -0.892     (0)  
   FeHSO4+2        6.083e-12   1.872e-12   -11.216   -11.728    -0.512     (0)  
   FeCl+2          6.066e-12   1.781e-12   -11.217   -11.749    -0.532     (0)  
   FeCl2+          6.794e-14   5.001e-14   -13.168   -13.301    -0.133     (0)  
   Fe(OH)3         1.940e-14   2.036e-14   -13.712   -13.691     0.021     (0)  
   Fe2(OH)2+4      4.361e-17   3.910e-19   -16.360   -18.408    -2.047     (0)  
   FeCl3           2.996e-17   3.143e-17   -16.523   -16.503     0.021     (0)  
   Fe(OH)4-        4.967e-20   3.694e-20   -19.304   -19.433    -0.129     (0)  
   Fe3(OH)4+5      1.026e-23   6.487e-27   -22.989   -26.188    -3.199     (0)  
H(0)          3.390e-18
   H2              1.695e-18   1.778e-18   -17.771   -17.750     0.021     28.61
K             2.029e-04
   K+              1.721e-04   1.219e-04    -3.764    -3.914    -0.150      9.35
   KSO4-           3.088e-05   2.515e-05    -4.510    -4.599    -0.089     14.02
   KHCO3           5.163e-13   5.187e-13   -12.287   -12.285     0.002     41.03
Mg            1.603e-02
   MgSO4           7.824e-03   8.612e-03    -2.107    -2.065     0.042     -7.92
   Mg+2            7.138e-03   2.426e-03    -2.146    -2.615    -0.469    -20.91
   Mg(SO4)2-2      1.070e-03   3.846e-04    -2.970    -3.415    -0.445     24.69
   MgHCO3+         3.779e-10   2.703e-10    -9.423    -9.568    -0.146      5.72
   MgOH+           2.299e-11   1.753e-11   -10.638   -10.756    -0.118     (0)  
   MgCO3           1.966e-15   2.063e-15   -14.706   -14.686     0.021    -17.09
Mn(2)         1.360e-03
   Mn+2            7.750e-04   2.506e-04    -3.111    -3.601    -0.490    -17.50
   MnSO4           5.760e-04   6.043e-04    -3.240    -3.219     0.021     22.54
   MnCl+           8.719e-06   6.419e-06    -5.060    -5.193    -0.133     -2.87
   MnCl2           1.679e-08   1.761e-08    -7.775    -7.754     0.021     85.89
   MnHCO3+         2.890e-10   2.127e-10    -9.539    -9.672    -0.133     (0)  
   MnCl3-          4.142e-11   3.049e-11   -10.383   -10.516    -0.133     44.27
   MnOH+           1.741e-11   1.282e-11   -10.759   -10.892    -0.133     (0)  
   MnCO3           1.691e-14   1.774e-14   -13.772   -13.751     0.021     (0)  
   Mn(OH)3-        4.251e-29   3.129e-29   -28.371   -28.505    -0.133     (0)  
Mn(3)         6.038e-25
   Mn+3            6.038e-25   7.746e-26   -24.219   -25.111    -0.892     (0)  
Na            9.538e-03
   Na+             7.813e-03   5.827e-03    -2.107    -2.235    -0.127     -0.92
   NaSO4-          1.725e-03   1.286e-03    -2.763    -2.891    -0.128     -0.67
   NaHCO3          4.391e-11   4.833e-11   -10.357   -10.316     0.042     31.73
   NaOH            1.119e-23   1.174e-23   -22.951   -22.931     0.021     (0)  
O(0)          0.000e+00
   O2              0.000e+00   0.000e+00   -56.903   -56.882     0.021     30.40
S(6)          1.018e-01
   SO4-2           4.707e-02   1.356e-02    -1.327    -1.868    -0.541     28.47
   FeSO4           2.258e-02   2.369e-02    -1.646    -1.626     0.021     18.97
   MgSO4           7.824e-03   8.612e-03    -2.107    -2.065     0.042     -7.92
   AlSO4+          6.821e-03   4.953e-03    -2.166    -2.305    -0.139     (0)  
   CaSO4           4.958e-03   5.202e-03    -2.305    -2.284     0.021      7.50
   Al(SO4)2-       2.924e-03   2.123e-03    -2.534    -2.673    -0.139     (0)  
   NaSO4-          1.725e-03   1.286e-03    -2.763    -2.891    -0.128     -0.67
   Mg(SO4)2-2      1.070e-03   3.846e-04    -2.970    -3.415    -0.445     24.69
   CuSO4           9.490e-04   9.957e-04    -3.023    -3.002     0.021     13.09
   HSO4-           8.870e-04   6.606e-04    -3.052    -3.180    -0.128     40.66
   MnSO4           5.760e-04   6.043e-04    -3.240    -3.219     0.021     22.54
   ZnSO4           1.335e-04   1.401e-04    -3.874    -3.854     0.021     21.71
   FeHSO4+         1.048e-04   7.803e-05    -3.980    -4.108    -0.128     (0)  
   Zn(SO4)2-2      5.017e-05   1.544e-05    -4.300    -4.811    -0.512     -9.99
   KSO4-           3.088e-05   2.515e-05    -4.510    -4.599    -0.089     14.02
   CaHSO4+         2.301e-05   1.714e-05    -4.638    -4.766    -0.128     (0)  
   AlHSO4+2        7.153e-07   2.201e-07    -6.146    -6.657    -0.512     (0)  
   FeSO4+          1.895e-09   1.395e-09    -8.722    -8.856    -0.133     (0)  
   Fe(SO4)2-       5.555e-10   4.137e-10    -9.255    -9.383    -0.128     (0)  
   FeHSO4+2        6.083e-12   1.872e-12   -11.216   -11.728    -0.512     (0)  
Zn            3.348e-04
   Zn+2            1.501e-04   4.407e-05    -3.824    -4.356    -0.532    -24.47
   ZnSO4           1.335e-04   1.401e-04    -3.874    -3.854     0.021     21.71
   Zn(SO4)2-2      5.017e-05   1.544e-05    -4.300    -4.811    -0.512     -9.99
   ZnCl+           1.043e-06   7.457e-07    -5.982    -6.127    -0.146    -14.40
   ZnCl2           4.678e-09   4.908e-09    -8.330    -8.309     0.021    102.03
   ZnOH+           1.291e-10   9.616e-11    -9.889   -10.017    -0.128     (0)  
   ZnHCO3+         7.094e-11   5.284e-11   -10.149   -10.277    -0.128     (0)  
   ZnCl3-          4.840e-11   3.462e-11   -10.315   -10.461    -0.146     15.77
   ZnOHCl          1.740e-11   1.825e-11   -10.759   -10.739     0.021     (0)  
   ZnCl4-2         3.715e-13   1.091e-13   -12.430   -12.962    -0.532    147.44
   ZnCO3           7.469e-15   7.836e-15   -14.127   -14.106     0.021     (0)  
   Zn(OH)2         2.094e-15   2.197e-15   -14.679   -14.658     0.021     (0)  
   Zn(OH)3-        1.856e-23   1.382e-23   -22.731   -22.859    -0.128     (0)  
   Zn(CO3)2-2      4.851e-25   1.493e-25   -24.314   -24.826    -0.512     (0)  
   Zn(OH)4-2       1.417e-32   4.359e-33   -31.849   -32.361    -0.512     (0)  

------------------------------Saturation indices-------------------------------

  Phase               SI** log IAP   log K(298 K,   1 atm)

  Al(OH)3(a)       -4.84      5.96   10.80  Al(OH)3
  AlOHSO4          -0.31     -2.51   -2.20  AlOHSO4
  Alunite           1.73      0.33   -1.40  KAl3(SO4)2(OH)6
  Anhydrite        -0.26     -4.53   -4.28  CaSO4
  Aragonite        -9.38    -17.72   -8.34  CaCO3
  Arcanite         -7.82     -9.70   -1.88  K2SO4
  Calcite          -9.24    -17.72   -8.48  CaCO3
  CO2(g)           -3.50     -4.97   -1.47  CO2	 Pressure   0.0 atm, phi 1.000
  Dolomite        -18.30    -35.38  -17.08  CaMg(CO3)2
  Epsomite         -2.75     -4.49   -1.74  MgSO4:7H2O
  Fe(OH)3          -6.02     -1.13    4.89  Fe(OH)3
  Fe(OH)3(a)       -6.02     -1.13    4.89  Fe(OH)3
  Gibbsite         -2.15      5.96    8.11  Al(OH)3
  Goethite         -0.13     -1.13   -1.00  FeOOH
  Gypsum            0.05     -4.54   -4.58  CaSO4:2H2O
  H2(g)           -14.65    -17.75   -3.10  H2
  H2O(g)           -1.50     -0.00    1.50  H2O
  Halite           -6.01     -4.44    1.57  NaCl
  Hausmannite     -37.44     23.59   61.03  Mn3O4
  Hematite          1.75     -2.26   -4.01  Fe2O3
  Hexahydrite      -2.92     -4.49   -1.57  MgSO4:6H2O
  Jarosite-K      -11.73    -20.94   -9.21  KFe3(SO4)2(OH)6
  Kieserite        -3.32     -4.48   -1.16  MgSO4:H2O
  Manganite       -15.04     10.30   25.34  MnOOH
  Melanterite      -1.67     -3.88   -2.21  FeSO4:7H2O
  Mirabilite       -5.11     -6.35   -1.24  Na2SO4:10H2O
  MnO2            -23.78     17.60   41.38  MnO2
  O2(g)           -53.99    -56.88   -2.89  O2
  Pyrochroite     -12.20      3.00   15.20  Mn(OH)2
  Pyrolusite      -23.78     17.60   41.38  MnO2:H2O
  Rhodochrosite    -7.52    -18.65  -11.13  MnCO3
  Siderite         -6.17    -17.06  -10.89  FeCO3
  Smithsonite      -9.41    -19.41  -10.00  ZnCO3
  Sylvite          -7.02     -6.12    0.90  KCl
  Thenardite       -6.04     -6.34   -0.30  Na2SO4
  Zn(OH)2(e)       -9.26      2.24   11.50  Zn(OH)2

**For a gas, SI = log10(fugacity). Fugacity = pressure * phi / 1 atm.
  For ideal gases, phi = 1.

Initial solution 1.	

-----------------------------Solution composition------------------------------

	Elements           Molality       Moles

	Al                1.801e-06   1.801e-06
	Alkalinity        2.301e-03   2.301e-03
	Ca                1.222e-03   1.222e-03  Charge balance
	Cl                4.801e-04   4.801e-04
	Cu                1.500e-07   1.500e-07
	Fe                3.501e-07   3.501e-07
	K                 3.001e-05   3.001e-05
	Mg                3.701e-04   3.701e-04
	Mn                1.000e-07   1.000e-07
	Na                9.603e-04   9.603e-04
	O(0)              2.201e-04   2.201e-04
	S(6)              7.002e-04   7.002e-04
	Zn                2.501e-07   2.501e-07

----------------------------Description of solution----------------------------

                                       pH  =   7.190    
                                       pe  =   4.000    
      Specific Conductance (µS/cm,  25°C)  = 440
                          Density (g/cm³)  =   0.99730
                               Volume (L)  =   1.00303
                        Viscosity (mPa s)  =   0.89275
                        Activity of water  =   1.000
                 Ionic strength (mol/kgw)  =   6.022e-03
                       Mass of water (kg)  =   1.000e+00
                    Total carbon (mol/kg)  =   2.590e-03
                       Total CO2 (mol/kg)  =   2.590e-03
                         Temperature (°C)  =  25.00
                  Electrical balance (eq)  =   1.795e-17
 Percent error, 100*(Cat-|An|)/(Cat+|An|)  =   0.00
                               Iterations  =  11 (21 overall)
                                  Total H  = 1.110147e+02
                                  Total O  = 5.551671e+01

---------------------------------Redox couples---------------------------------

	Redox couple             pe  Eh (volts)

	O(-2)/O(0)          13.3406      0.7892

----------------------------Distribution of species----------------------------

                                               Log       Log       Log    mole V
   Species          Molality    Activity  Molality  Activity     Gamma   cm³/mol

   OH-             1.704e-07   1.567e-07    -6.768    -6.805    -0.036     -4.06
   H+              6.953e-08   6.457e-08    -7.158    -7.190    -0.032      0.00
   H2O             5.551e+01   9.999e-01     1.744    -0.000     0.000     18.07
Al            1.801e-06
   Al(OH)4-        1.720e-06   1.585e-06    -5.764    -5.800    -0.036     (0)  
   Al(OH)3         5.423e-08   5.431e-08    -7.266    -7.265     0.001     (0)  
   Al(OH)2+        2.579e-08   2.380e-08    -7.589    -7.623    -0.035     (0)  
   AlOH+2          2.702e-10   1.961e-10    -9.568    -9.708    -0.139    -27.62
   Al+3            2.484e-12   1.275e-12   -11.605   -11.895    -0.290    -42.00
   AlSO4+          1.904e-12   1.755e-12   -11.720   -11.756    -0.036     (0)  
   Al(SO4)2-       2.622e-14   2.416e-14   -13.581   -13.617    -0.036     (0)  
   AlHSO4+2        1.397e-20   1.005e-20   -19.855   -19.998    -0.143     (0)  
C(4)          2.590e-03
   HCO3-           2.252e-03   2.079e-03    -2.647    -2.682    -0.035     24.62
   CO2             3.015e-04   3.018e-04    -3.521    -3.520     0.000     34.43
   CaHCO3+         2.359e-05   2.179e-05    -4.627    -4.662    -0.034      9.71
   MgHCO3+         6.456e-06   5.943e-06    -5.190    -5.226    -0.036      5.51
   CaCO3           2.081e-06   2.084e-06    -5.682    -5.681     0.001    -14.60
   CO3-2           2.080e-06   1.510e-06    -5.682    -5.821    -0.139     -3.76
   NaHCO3          1.584e-06   1.589e-06    -5.800    -5.799     0.001     31.73
   MgCO3           3.516e-07   3.521e-07    -6.454    -6.453     0.001    -17.09
   CuCO3           7.620e-08   7.630e-08    -7.118    -7.117     0.001     (0)  
   ZnCO3           3.573e-08   3.578e-08    -7.447    -7.446     0.001     (0)  
   ZnHCO3+         3.375e-08   3.108e-08    -7.472    -7.508    -0.036     (0)  
   KHCO3           2.544e-08   2.545e-08    -7.594    -7.594     0.000     41.03
   FeHCO3+         2.441e-08   2.248e-08    -7.612    -7.648    -0.036     (0)  
   MnHCO3+         1.134e-08   1.046e-08    -7.945    -7.981    -0.035     (0)  
   CuHCO3+         1.065e-08   9.804e-09    -7.973    -8.009    -0.036     (0)  
   MnCO3           6.760e-09   6.770e-09    -8.170    -8.169     0.001     (0)  
   FeCO3           3.911e-09   3.916e-09    -8.408    -8.407     0.001     (0)  
   (CO2)2          1.670e-09   1.672e-09    -8.777    -8.777     0.001     68.87
   Zn(CO3)2-2      1.606e-09   1.155e-09    -8.794    -8.937    -0.143     (0)  
   Cu(CO3)2-2      2.017e-10   1.450e-10    -9.695    -9.838    -0.143     (0)  
Ca            1.222e-03
   Ca+2            1.133e-03   8.217e-04    -2.946    -3.085    -0.139    -17.99
   CaSO4           6.352e-05   6.361e-05    -4.197    -4.196     0.001      7.50
   CaHCO3+         2.359e-05   2.179e-05    -4.627    -4.662    -0.034      9.71
   CaCO3           2.081e-06   2.084e-06    -5.682    -5.681     0.001    -14.60
   CaOH+           2.293e-09   2.112e-09    -8.640    -8.675    -0.036     (0)  
   CaHSO4+         2.932e-11   2.700e-11   -10.533   -10.569    -0.036     (0)  
Cl            4.801e-04
   Cl-             4.801e-04   4.418e-04    -3.319    -3.355    -0.036     18.12
   ZnCl+           1.534e-10   1.412e-10    -9.814    -9.850    -0.036    -13.88
   MnCl+           1.101e-10   1.016e-10    -9.958    -9.993    -0.035     -3.05
   FeCl+           7.160e-11   6.594e-11   -10.145   -10.181    -0.036     (0)  
   CuCl2-          3.311e-11   3.048e-11   -10.480   -10.516    -0.036     (0)  
   ZnOHCl          2.687e-11   2.691e-11   -10.571   -10.570     0.001     (0)  
   CuCl+           1.215e-11   1.119e-11   -10.915   -10.951    -0.036      0.68
   HCl             9.769e-12   9.827e-12   -11.010   -11.008     0.003     (0)  
   ZnCl2           6.525e-14   6.534e-14   -13.185   -13.185     0.001    102.03
   CuCl3-2         2.949e-14   2.134e-14   -13.530   -13.671    -0.140     (0)  
   MnCl2           1.957e-14   1.959e-14   -13.709   -13.708     0.001     85.89
   CuCl2           2.651e-15   2.655e-15   -14.577   -14.576     0.001     31.02
   ZnCl3-          3.518e-17   3.239e-17   -16.454   -16.490    -0.036     16.99
   MnCl3-          2.585e-18   2.384e-18   -17.588   -17.623    -0.035     43.40
   FeCl+2          1.903e-18   1.378e-18   -17.720   -17.861    -0.140     (0)  
   ZnCl4-2         9.909e-21   7.172e-21   -20.004   -20.144    -0.140    145.35
   CuCl3-          4.521e-21   4.162e-21   -20.345   -20.381    -0.036     (0)  
   FeCl2+          2.948e-21   2.719e-21   -20.531   -20.566    -0.035     (0)  
   FeCl3           1.200e-25   1.201e-25   -24.921   -24.920     0.001     (0)  
   CuCl4-2         1.273e-26   9.216e-27   -25.895   -26.035    -0.140     (0)  
Cu(1)         5.711e-10
   Cu+             5.380e-10   4.938e-10    -9.269    -9.306    -0.037     (0)  
   CuCl2-          3.311e-11   3.048e-11   -10.480   -10.516    -0.036     (0)  
   CuCl3-2         2.949e-14   2.134e-14   -13.530   -13.671    -0.140     (0)  
Cu(2)         1.495e-07
   CuCO3           7.620e-08   7.630e-08    -7.118    -7.117     0.001     (0)  
   Cu(OH)2         4.708e-08   4.715e-08    -7.327    -7.327     0.001     (0)  
   Cu+2            1.291e-08   9.410e-09    -7.889    -8.026    -0.137    -26.47
   CuHCO3+         1.065e-08   9.804e-09    -7.973    -8.009    -0.036     (0)  
   CuOH+           1.583e-09   1.457e-09    -8.801    -8.836    -0.036     (0)  
   CuSO4           8.352e-10   8.364e-10    -9.078    -9.078     0.001     13.09
   Cu(CO3)2-2      2.017e-10   1.450e-10    -9.695    -9.838    -0.143     (0)  
   CuCl+           1.215e-11   1.119e-11   -10.915   -10.951    -0.036      0.68
   Cu2(OH)2+2      1.292e-12   9.292e-13   -11.889   -12.032    -0.143     (0)  
   Cu(OH)3-        4.778e-14   4.400e-14   -13.321   -13.357    -0.036     (0)  
   CuCl2           2.651e-15   2.655e-15   -14.577   -14.576     0.001     31.02
   Cu(OH)4-2       1.891e-19   1.360e-19   -18.723   -18.867    -0.143     (0)  
   CuCl3-          4.521e-21   4.162e-21   -20.345   -20.381    -0.036     (0)  
   CuCl4-2         1.273e-26   9.216e-27   -25.895   -26.035    -0.140     (0)  
Fe(2)         1.856e-07
   Fe+2            1.483e-07   1.081e-07    -6.829    -6.966    -0.137    -21.99
   FeHCO3+         2.441e-08   2.248e-08    -7.612    -7.648    -0.036     (0)  
   FeSO4           8.358e-09   8.370e-09    -8.078    -8.077     0.001     18.97
   FeCO3           3.911e-09   3.916e-09    -8.408    -8.407     0.001     (0)  
   FeOH+           5.740e-10   5.295e-10    -9.241    -9.276    -0.035     (0)  
   FeCl+           7.160e-11   6.594e-11   -10.145   -10.181    -0.036     (0)  
   Fe(OH)2         6.969e-14   6.979e-14   -13.157   -13.156     0.001     (0)  
   FeHSO4+         3.857e-15   3.552e-15   -14.414   -14.450    -0.036     (0)  
   Fe(OH)3-        4.354e-17   4.016e-17   -16.361   -16.396    -0.035     (0)  
Fe(3)         1.645e-07
   Fe(OH)3         1.055e-07   1.056e-07    -6.977    -6.976     0.001     (0)  
   Fe(OH)2+        5.736e-08   5.294e-08    -7.241    -7.276    -0.035     (0)  
   Fe(OH)4-        1.616e-09   1.492e-09    -8.792    -8.826    -0.035     (0)  
   FeOH+2          1.426e-11   1.032e-11   -10.846   -10.986    -0.140     (0)  
   FeSO4+          5.343e-16   4.928e-16   -15.272   -15.307    -0.035     (0)  
   Fe+3            2.012e-16   1.032e-16   -15.696   -15.986    -0.290     (0)  
   Fe(SO4)2-       5.097e-18   4.694e-18   -17.293   -17.328    -0.036     (0)  
   FeCl+2          1.903e-18   1.378e-18   -17.720   -17.861    -0.140     (0)  
   Fe2(OH)2+4      1.073e-20   2.869e-21   -19.969   -20.542    -0.573     (0)  
   FeCl2+          2.948e-21   2.719e-21   -20.531   -20.566    -0.035     (0)  
   FeHSO4+2        1.185e-22   8.521e-23   -21.926   -22.070    -0.143     (0)  
   Fe3(OH)4+5      2.492e-25   3.173e-26   -24.603   -25.499    -0.895     (0)  
   FeCl3           1.200e-25   1.201e-25   -24.921   -24.920     0.001     (0)  
H(0)          5.894e-26
   H2              2.947e-26   2.951e-26   -25.531   -25.530     0.001     28.61
K             3.001e-05
   K+              2.979e-05   2.740e-05    -4.526    -4.562    -0.036      9.05
   KSO4-           1.961e-07   1.815e-07    -6.707    -6.741    -0.034     14.18
   KHCO3           2.544e-08   2.545e-08    -7.594    -7.594     0.000     41.03
Mg            3.701e-04
   Mg+2            3.355e-04   2.443e-04    -3.474    -3.612    -0.138    -21.68
   MgSO4           2.777e-05   2.785e-05    -4.556    -4.555     0.001     -7.92
   MgHCO3+         6.456e-06   5.943e-06    -5.190    -5.226    -0.036      5.51
   MgCO3           3.516e-07   3.521e-07    -6.454    -6.453     0.001    -17.09
   Mg(SO4)2-2      5.438e-08   3.993e-08    -7.265    -7.399    -0.134      4.22
   MgOH+           1.486e-08   1.374e-08    -7.828    -7.862    -0.034     (0)  
Mn(2)         1.000e-07
   Mn+2            7.743e-08   5.644e-08    -7.111    -7.248    -0.137    -20.15
   MnHCO3+         1.134e-08   1.046e-08    -7.945    -7.981    -0.035     (0)  
   MnCO3           6.760e-09   6.770e-09    -8.170    -8.169     0.001     (0)  
   MnSO4           4.363e-09   4.370e-09    -8.360    -8.360     0.001     22.54
   MnCl+           1.101e-10   1.016e-10    -9.958    -9.993    -0.035     -3.05
   MnOH+           2.436e-11   2.247e-11   -10.613   -10.648    -0.035     (0)  
   MnCl2           1.957e-14   1.959e-14   -13.709   -13.708     0.001     85.89
   MnCl3-          2.585e-18   2.384e-18   -17.588   -17.623    -0.035     43.40
   Mn(OH)3-        3.602e-21   3.323e-21   -20.443   -20.479    -0.035     (0)  
Mn(3)         3.399e-29
   Mn+3            3.399e-29   1.744e-29   -28.469   -28.758    -0.290     (0)  
Na            9.603e-04
   Na+             9.520e-04   8.775e-04    -3.021    -3.057    -0.035     -1.41
   NaSO4-          6.736e-06   6.219e-06    -5.172    -5.206    -0.035    -16.69
   NaHCO3          1.584e-06   1.589e-06    -5.800    -5.799     0.001     31.73
   NaOH            1.374e-20   1.376e-20   -19.862   -19.862     0.001     (0)  
O(0)          2.201e-04
   O2              1.100e-04   1.102e-04    -3.958    -3.958     0.001     30.40
S(6)          7.002e-04
   SO4-2           6.018e-04   4.353e-04    -3.221    -3.361    -0.141     17.16
   CaSO4           6.352e-05   6.361e-05    -4.197    -4.196     0.001      7.50
   MgSO4           2.777e-05   2.785e-05    -4.556    -4.555     0.001     -7.92
   NaSO4-          6.736e-06   6.219e-06    -5.172    -5.206    -0.035    -16.69
   KSO4-           1.961e-07   1.815e-07    -6.707    -6.741    -0.034     14.18
   Mg(SO4)2-2      5.438e-08   3.993e-08    -7.265    -7.399    -0.134      4.22
   ZnSO4           1.210e-08   1.212e-08    -7.917    -7.917     0.001     21.71
   FeSO4           8.358e-09   8.370e-09    -8.078    -8.077     0.001     18.97
   MnSO4           4.363e-09   4.370e-09    -8.360    -8.360     0.001     22.54
   HSO4-           2.968e-09   2.733e-09    -8.528    -8.563    -0.036     40.32
   CuSO4           8.352e-10   8.364e-10    -9.078    -9.078     0.001     13.09
   Zn(SO4)2-2      5.964e-11   4.289e-11   -10.224   -10.368    -0.143    -12.92
   CaHSO4+         2.932e-11   2.700e-11   -10.533   -10.569    -0.036     (0)  
   AlSO4+          1.904e-12   1.755e-12   -11.720   -11.756    -0.036     (0)  
   Al(SO4)2-       2.622e-14   2.416e-14   -13.581   -13.617    -0.036     (0)  
   FeHSO4+         3.857e-15   3.552e-15   -14.414   -14.450    -0.036     (0)  
   FeSO4+          5.343e-16   4.928e-16   -15.272   -15.307    -0.035     (0)  
   Fe(SO4)2-       5.097e-18   4.694e-18   -17.293   -17.328    -0.036     (0)  
   AlHSO4+2        1.397e-20   1.005e-20   -19.855   -19.998    -0.143     (0)  
   FeHSO4+2        1.185e-22   8.521e-23   -21.926   -22.070    -0.143     (0)  
Zn            2.501e-07
   Zn+2            1.641e-07   1.188e-07    -6.785    -6.925    -0.140    -25.21
   ZnCO3           3.573e-08   3.578e-08    -7.447    -7.446     0.001     (0)  
   ZnHCO3+         3.375e-08   3.108e-08    -7.472    -7.508    -0.036     (0)  
   ZnSO4           1.210e-08   1.212e-08    -7.917    -7.917     0.001     21.71
   ZnOH+           2.190e-09   2.017e-09    -8.660    -8.695    -0.036     (0)  
   Zn(CO3)2-2      1.606e-09   1.155e-09    -8.794    -8.937    -0.143     (0)  
   Zn(OH)2         3.581e-10   3.586e-10    -9.446    -9.445     0.001     (0)  
   ZnCl+           1.534e-10   1.412e-10    -9.814    -9.850    -0.036    -13.88
   Zn(SO4)2-2      5.964e-11   4.289e-11   -10.224   -10.368    -0.143    -12.92
   ZnOHCl          2.687e-11   2.691e-11   -10.571   -10.570     0.001     (0)  
   ZnCl2           6.525e-14   6.534e-14   -13.185   -13.185     0.001    102.03
   Zn(OH)3-        1.907e-14   1.756e-14   -13.720   -13.755    -0.036     (0)  
   ZnCl3-          3.518e-17   3.239e-17   -16.454   -16.490    -0.036     16.99
   Zn(OH)4-2       5.994e-20   4.310e-20   -19.222   -19.366    -0.143     (0)  
   ZnCl4-2         9.909e-21   7.172e-21   -20.004   -20.144    -0.140    145.35

------------------------------Saturation indices-------------------------------

  Phase               SI** log IAP   log K(298 K,   1 atm)

  Al(OH)3(a)       -1.12      9.68   10.80  Al(OH)3
  AlOHSO4          -5.87     -8.07   -2.20  AlOHSO4
  Alunite          -2.43     -3.83   -1.40  KAl3(SO4)2(OH)6
  Anhydrite        -2.17     -6.45   -4.28  CaSO4
  Aragonite        -0.57     -8.91   -8.34  CaCO3
  Arcanite        -10.61    -12.49   -1.88  K2SO4
  Calcite          -0.43     -8.91   -8.48  CaCO3
  CO2(g)           -2.05     -3.52   -1.47  CO2
  Dolomite         -1.26    -18.34  -17.08  CaMg(CO3)2
  Epsomite         -5.24     -6.97   -1.74  MgSO4:7H2O
  Fe(OH)3           0.69      5.58    4.89  Fe(OH)3
  Fe(OH)3(a)        0.69      5.58    4.89  Fe(OH)3
  Gibbsite          1.57      9.68    8.11  Al(OH)3
  Goethite          6.58      5.58   -1.00  FeOOH
  Gypsum           -1.86     -6.45   -4.58  CaSO4:2H2O
  H2(g)           -22.43    -25.53   -3.10  H2
  H2O(g)           -1.50     -0.00    1.50  H2O
  Halite           -7.98     -6.41    1.57  NaCl
  Hausmannite     -17.26     43.77   61.03  Mn3O4
  Hematite         15.18     11.17   -4.01  Fe2O3
  Hexahydrite      -5.41     -6.97   -1.57  MgSO4:6H2O
  Jarosite-K       -6.89    -16.10   -9.21  KFe3(SO4)2(OH)6
  Kieserite        -5.81     -6.97   -1.16  MgSO4:H2O
  Manganite        -7.02     18.32   25.34  MnOOH
  Melanterite      -8.12    -10.33   -2.21  FeSO4:7H2O
  Mirabilite       -8.24     -9.48   -1.24  Na2SO4:10H2O
  MnO2            -11.87     29.51   41.38  MnO2
  O2(g)            -1.07     -3.96   -2.89  O2
  Pyrochroite      -8.07      7.13   15.20  Mn(OH)2
  Pyrolusite      -11.87     29.51   41.38  MnO2:H2O
  Rhodochrosite    -1.94    -13.07  -11.13  MnCO3
  Siderite         -1.90    -12.79  -10.89  FeCO3
  Smithsonite      -2.75    -12.75  -10.00  ZnCO3
  Sylvite          -8.82     -7.92    0.90  KCl
  Thenardite       -9.17     -9.47   -0.30  Na2SO4
  Zn(OH)2(e)       -4.05      7.45   11.50  Zn(OH)2

**For a gas, SI = log10(fugacity). Fugacity = pressure * phi / 1 atm.
  For ideal gases, phi = 1.

------------------------------------
Beginning of advection calculations.
------------------------------------

Beginning of advection time step 1, cumulative pore volumes 0.200000.
WARNING: Maximum iterations exceeded, 100

WARNING: Numerical method failed with this set of convergence parameters.

WARNING: Trying smaller step size, pe step size 10, 5 ... 

WARNING: Maximum iterations exceeded, 200

WARNING: Numerical method failed with this set of convergence parameters.

WARNING: Trying reduced tolerance 1e-16 ...

WARNING: Maximum iterations exceeded, 100

WARNING: Numerical method failed with this set of convergence parameters.

WARNING: Trying smaller step size, pe step size 10, 5 ... 

WARNING: Maximum iterations exceeded, 200

WARNING: Numerical method failed with this set of convergence parameters.

WARNING: Trying reduced tolerance 1e-16 ...

WARNING: Maximum iterations exceeded, 100

WARNING: Numerical method failed with this set of convergence parameters.

WARNING: Trying smaller step size, pe step size 10, 5 ... 

WARNING: Maximum iterations exceeded, 200

WARNING: Numerical method failed with this set of convergence parameters.

WARNING: Trying reduced tolerance 1e-16 ...

WARNING: Maximum iterations exceeded, 100

WARNING: Numerical method failed with this set of convergence parameters.

WARNING: Trying smaller step size, pe step size 10, 5 ... 

WARNING: Maximum iterations exceeded, 200

WARNING: Numerical method failed with this set of convergence parameters.

WARNING: Trying reduced tolerance 1e-16 ...

Beginning of advection time step 2, cumulative pore volumes 0.400000.
Beginning of advection time step 3, cumulative pore volumes 0.600000.
Beginning of advection time step 4, cumulative pore volumes 0.800000.
Beginning of advection time step 5, cumulative pore volumes 1.000000.

Cell 1.

Using solution 1.	
Using surface 1.	
Using pure phase assemblage 1.	Pure-phase assemblage after simulation 1.

-------------------------------Phase assemblage--------------------------------

                                                      Moles in assemblage
Phase               SI  log IAP  log K(T, P)   Initial       Final       Delta

Al(OH)3(a)        0.00    10.80     10.80    4.258e-02   5.319e-02   1.061e-02
AlOHSO4          -0.43    -2.63     -2.20    0.000e+00           0   0.000e+00
Calcite          -2.92   -11.40     -8.48    0.000e+00           0   0.000e+00
Fe(OH)3           0.00     4.89      4.89    8.190e-01   8.187e-01  -3.211e-04
Gypsum            0.00    -4.58     -4.58    1.344e-01   1.357e-01   1.273e-03
MnO2            -15.79    25.59     41.38    0.000e+00           0   0.000e+00

------------------------------Surface composition------------------------------

Diffuse Double Layer Surface-Complexation Model

Surf          
	  1.709e-17  Surface + diffuse layer charge, eq
	  1.005e-01  Surface charge, eq
	  2.486e-01  sigma, C/m²
	  7.591e-02  psi, V
	 -2.955e+00  -F*psi/RT
	  5.210e-02  exp(-F*psi/RT)
	  6.000e+02  specific area, m²/g
	  3.900e+04  m² for   6.500e+01 g

	Water in diffuse layer: 3.900e-02 kg, 100.0% of total DDL-water.

	Total moles in diffuse layer (excluding water)

	Element       	     Moles
	Al            	  1.4356e-06
	C             	  2.6880e-05
	Ca            	  1.0878e-04
	Cl            	  1.5249e-03
	Cu            	  9.9712e-06
	Fe            	  5.6452e-04
	H             	  1.7919e-05
	K             	  5.9143e-06
	Mg            	  1.3024e-03
	Mn            	  1.1751e-04
	Na            	  3.2062e-04
	O             	  2.0725e-01
	S             	  5.1795e-02
	Zn            	  6.9209e-05

Surf          
	  1.500e-01  moles
	                                   Mole                     Log
	Species               Moles    Fraction    Molality    Molality

	SurfOH2+          8.080e-02       0.539   8.085e-02      -1.092
	SurfOH            4.822e-02       0.321   4.824e-02      -1.317
	SurfOCu+          1.163e-02       0.078   1.164e-02      -1.934
	SurfOMn+          7.829e-03       0.052   7.834e-03      -2.106
	SurfOZn+          8.646e-04       0.006   8.652e-04      -3.063
	SurfO-            6.591e-04       0.004   6.595e-04      -3.181

-----------------------------Solution composition------------------------------

	Elements           Molality       Moles

	Al                4.490e-05   4.487e-05
	C                 4.848e-04   4.846e-04
	Ca                1.050e-02   1.049e-02
	Cl                9.618e-03   9.612e-03
	Cu                6.896e-05   6.892e-05
	Fe                5.347e-02   5.344e-02
	K                 2.027e-04   2.026e-04
	Mg                1.583e-02   1.582e-02
	Mn                1.115e-02   1.115e-02
	Na                9.522e-03   9.517e-03
	S                 9.141e-02   9.135e-02
	Zn                4.244e-04   4.241e-04

----------------------------Description of solution----------------------------

                                       pH  =   5.783      Charge balance
                                       pe  =   2.573      Adjusted to redox equilibrium
      Specific Conductance (µS/cm,  25°C)  = 11277
                          Density (g/cm³)  =   1.00975
                               Volume (L)  =   1.00342
                        Viscosity (mPa s)  =   0.91358
                        Activity of water  =   0.997
                 Ionic strength (mol/kgw)  =   2.066e-01
                       Mass of water (kg)  =   9.994e-01
                 Total alkalinity (eq/kg)  =   2.529e-04
                       Total CO2 (mol/kg)  =   4.848e-04
                         Temperature (°C)  =  25.00
                  Electrical balance (eq)  =  -1.115e-16
 Percent error, 100*(Cat-|An|)/(Cat+|An|)  =  -0.00
                               Iterations  =   1 (14 overall)
                                  Total H  = 1.109461e+02
                                  Total O  = 5.583957e+01

----------------------------Distribution of species----------------------------

                                               Log       Log       Log    mole V
   Species          Molality    Activity  Molality  Activity     Gamma   cm³/mol

   H+              2.071e-06   1.650e-06    -5.684    -5.783    -0.099      0.00
   OH-             8.689e-09   6.120e-09    -8.061    -8.213    -0.152     -3.48
   H2O             5.551e+01   9.973e-01     1.744    -0.001     0.000     18.07
Al            4.490e-05
   AlSO4+          1.699e-05   1.235e-05    -4.770    -4.908    -0.139     (0)  
   Al(OH)2+        1.092e-05   8.125e-06    -4.962    -5.090    -0.128     (0)  
   Al(SO4)2-       7.352e-06   5.342e-06    -5.134    -5.272    -0.139     (0)  
   AlOH+2          5.592e-06   1.715e-06    -5.252    -5.766    -0.513    -26.92
   Al+3            2.217e-06   2.855e-07    -5.654    -6.544    -0.890    -40.81
   Al(OH)4-        1.135e-06   8.247e-07    -5.945    -6.084    -0.139     (0)  
   Al(OH)3         6.901e-07   7.238e-07    -6.161    -6.140     0.021     (0)  
   AlHSO4+2        5.860e-12   1.806e-12   -11.232   -11.743    -0.511     (0)  
C(-4)         0.000e+00
   CH4             0.000e+00   0.000e+00   -46.037   -46.017     0.021     35.46
C(4)          4.848e-04
   CO2             2.641e-04   2.725e-04    -3.578    -3.565     0.014     34.43
   HCO3-           9.848e-05   7.328e-05    -4.007    -4.135    -0.128     25.15
   FeHCO3+         9.692e-05   7.221e-05    -4.014    -4.141    -0.128     (0)  
   MnHCO3+         1.815e-05   1.337e-05    -4.741    -4.874    -0.133     (0)  
   MgHCO3+         2.854e-06   2.043e-06    -5.545    -5.690    -0.145      5.72
   CaHCO3+         2.382e-06   1.798e-06    -5.623    -5.745    -0.122      9.88
   ZnHCO3+         6.870e-07   5.119e-07    -6.163    -6.291    -0.128     (0)  
   FeCO3           4.696e-07   4.925e-07    -6.328    -6.308     0.021     (0)  
   NaHCO3          3.372e-07   3.709e-07    -6.472    -6.431     0.041     31.73
   MnCO3           3.230e-07   3.387e-07    -6.491    -6.470     0.021     (0)  
   CuHCO3+         9.459e-08   7.048e-08    -7.024    -7.152    -0.128     (0)  
   ZnCO3           2.199e-08   2.306e-08    -7.658    -7.637     0.021     (0)  
   CuCO3           2.047e-08   2.147e-08    -7.689    -7.668     0.021     (0)  
   CO3-2           6.795e-09   2.083e-09    -8.168    -8.681    -0.513     -2.19
   CaCO3           6.417e-09   6.729e-09    -8.193    -8.172     0.021    -14.60
   MgCO3           4.517e-09   4.737e-09    -8.345    -8.325     0.021    -17.09
   KHCO3           3.966e-09   3.984e-09    -8.402    -8.400     0.002     41.03
   (CO2)2          1.300e-09   1.363e-09    -8.886    -8.865     0.021     68.87
   Zn(CO3)2-2      3.333e-12   1.027e-12   -11.477   -11.988    -0.511     (0)  
   Cu(CO3)2-2      1.827e-13   5.632e-14   -12.738   -13.249    -0.511     (0)  
Ca            1.050e-02
   Ca+2            6.036e-03   1.923e-03    -2.219    -2.716    -0.497    -17.20
   CaSO4           4.460e-03   4.677e-03    -2.351    -2.330     0.021      7.50
   CaHCO3+         2.382e-06   1.798e-06    -5.623    -5.745    -0.122      9.88
   CaHSO4+         6.806e-08   5.071e-08    -7.167    -7.295    -0.128     (0)  
   CaCO3           6.417e-09   6.729e-09    -8.193    -8.172     0.021    -14.60
   CaOH+           2.589e-10   1.929e-10    -9.587    -9.715    -0.128     (0)  
Cl            9.618e-03
   Cl-             9.311e-03   6.640e-03    -2.031    -2.178    -0.147     18.46
   FeCl+           1.212e-04   9.032e-05    -3.916    -4.044    -0.128     (0)  
   MnCl+           7.515e-05   5.536e-05    -4.124    -4.257    -0.133     -2.87
   CuCl2-          5.243e-05   3.753e-05    -4.280    -4.426    -0.145     (0)  
   ZnCl+           1.385e-06   9.915e-07    -5.859    -6.004    -0.145    -14.39
   CuCl3-2         1.341e-06   3.950e-07    -5.873    -6.403    -0.531     (0)  
   MnCl2           1.530e-07   1.604e-07    -6.815    -6.795     0.021     85.89
   CuCl+           4.790e-08   3.430e-08    -7.320    -7.465    -0.145      1.15
   ZnOHCl          7.033e-09   7.375e-09    -8.153    -8.132     0.021     (0)  
   ZnCl2           6.573e-09   6.894e-09    -8.182    -8.162     0.021    102.03
   HCl             3.081e-09   3.773e-09    -8.511    -8.423     0.088     (0)  
   MnCl3-          3.983e-10   2.934e-10    -9.400    -9.533    -0.133     44.27
   CuCl2           1.166e-10   1.223e-10    -9.933    -9.913     0.021     31.02
   ZnCl3-          7.174e-11   5.136e-11   -10.144   -10.289    -0.145     15.78
   ZnCl4-2         5.803e-13   1.709e-13   -12.236   -12.767    -0.531    147.43
   FeCl+2          2.397e-13   7.059e-14   -12.620   -13.151    -0.531     (0)  
   CuCl3-          4.024e-15   2.881e-15   -14.395   -14.540    -0.145     (0)  
   FeCl2+          2.842e-15   2.094e-15   -14.546   -14.679    -0.133     (0)  
   FeCl3           1.325e-18   1.390e-18   -17.878   -17.857     0.021     (0)  
   CuCl4-2         3.255e-19   9.587e-20   -18.487   -19.018    -0.531     (0)  
Cu(1)         5.774e-05
   CuCl2-          5.243e-05   3.753e-05    -4.280    -4.426    -0.145     (0)  
   Cu+             3.971e-06   2.692e-06    -5.401    -5.570    -0.169     (0)  
   CuCl3-2         1.341e-06   3.950e-07    -5.873    -6.403    -0.531     (0)  
Cu(2)         1.122e-05
   Cu+2            5.919e-06   1.919e-06    -5.228    -5.717    -0.489    -25.75
   CuSO4           5.111e-06   5.360e-06    -5.292    -5.271     0.021     13.09
   CuHCO3+         9.459e-08   7.048e-08    -7.024    -7.152    -0.128     (0)  
   CuCl+           4.790e-08   3.430e-08    -7.320    -7.465    -0.145      1.15
   CuCO3           2.047e-08   2.147e-08    -7.689    -7.668     0.021     (0)  
   CuOH+           1.621e-08   1.160e-08    -7.790    -7.935    -0.145     (0)  
   Cu(OH)2         1.398e-08   1.466e-08    -7.855    -7.834     0.021     (0)  
   Cu2(OH)2+2      1.911e-10   5.891e-11    -9.719   -10.230    -0.511     (0)  
   CuCl2           1.166e-10   1.223e-10    -9.933    -9.913     0.021     31.02
   Cu(CO3)2-2      1.827e-13   5.632e-14   -12.738   -13.249    -0.511     (0)  
   CuCl3-          4.024e-15   2.881e-15   -14.395   -14.540    -0.145     (0)  
   Cu(OH)3-        7.166e-16   5.339e-16   -15.145   -15.273    -0.128     (0)  
   CuCl4-2         3.255e-19   9.587e-20   -18.487   -19.018    -0.531     (0)  
   Cu(OH)4-2       2.090e-22   6.441e-23   -21.680   -22.191    -0.511     (0)  
   Cu(HS)3-        0.000e+00   0.000e+00  -102.199  -102.327    -0.128     (0)  
Fe(2)         5.347e-02
   Fe+2            3.039e-02   9.854e-03    -1.517    -2.006    -0.489    -21.24
   FeSO4           2.286e-02   2.397e-02    -1.641    -1.620     0.021     18.97
   FeCl+           1.212e-04   9.032e-05    -3.916    -4.044    -0.128     (0)  
   FeHCO3+         9.692e-05   7.221e-05    -4.014    -4.141    -0.128     (0)  
   FeOH+           2.558e-06   1.884e-06    -5.592    -5.725    -0.133     (0)  
   FeCO3           4.696e-07   4.925e-07    -6.328    -6.308     0.021     (0)  
   FeHSO4+         3.488e-07   2.599e-07    -6.457    -6.585    -0.128     (0)  
   Fe(OH)2         9.245e-12   9.695e-12   -11.034   -11.013     0.021     (0)  
   Fe(OH)3-        2.956e-16   2.178e-16   -15.529   -15.662    -0.133     (0)  
   Fe(HS)2         0.000e+00   0.000e+00   -74.751   -74.730     0.021     (0)  
   Fe(HS)3-        0.000e+00   0.000e+00  -113.402  -113.530    -0.128     (0)  
Fe(3)         3.949e-07
   Fe(OH)2+        3.697e-07   2.751e-07    -6.432    -6.560    -0.128     (0)  
   Fe(OH)3         2.043e-08   2.143e-08    -7.690    -7.669     0.021     (0)  
   FeOH+2          4.667e-09   1.374e-09    -8.331    -8.862    -0.531     (0)  
   FeSO4+          7.168e-11   5.280e-11   -10.145   -10.277    -0.133     (0)  
   Fe(SO4)2-       2.121e-11   1.580e-11   -10.674   -10.801    -0.128     (0)  
   Fe(OH)4-        1.588e-11   1.182e-11   -10.799   -10.928    -0.128     (0)  
   Fe+3            2.734e-12   3.520e-13   -11.563   -12.453    -0.890     (0)  
   FeCl+2          2.397e-13   7.059e-14   -12.620   -13.151    -0.531     (0)  
   Fe2(OH)2+4      5.629e-15   5.083e-17   -14.250   -16.294    -2.044     (0)  
   FeCl2+          2.842e-15   2.094e-15   -14.546   -14.679    -0.133     (0)  
   FeHSO4+2        7.566e-16   2.332e-16   -15.121   -15.632    -0.511     (0)  
   Fe3(OH)4+5      4.570e-18   2.922e-21   -17.340   -20.534    -3.194     (0)  
   FeCl3           1.325e-18   1.390e-18   -17.878   -17.857     0.021     (0)  
H(0)          2.625e-20
   H2              1.313e-20   1.377e-20   -19.882   -19.861     0.021     28.61
K             2.027e-04
   K+              1.716e-04   1.217e-04    -3.766    -3.915    -0.149      9.35
   KSO4-           3.110e-05   2.533e-05    -4.507    -4.596    -0.089     14.03
   KHCO3           3.966e-09   3.984e-09    -8.402    -8.400     0.002     41.03
Mg            1.583e-02
   MgSO4           7.759e-03   8.534e-03    -2.110    -2.069     0.041     -7.92
   Mg+2            6.997e-03   2.383e-03    -2.155    -2.623    -0.468    -20.91
   Mg(SO4)2-2      1.068e-03   3.845e-04    -2.971    -3.415    -0.444     24.63
   MgHCO3+         2.854e-06   2.043e-06    -5.545    -5.690    -0.145      5.72
   MgOH+           6.858e-09   5.230e-09    -8.164    -8.281    -0.118     (0)  
   MgCO3           4.517e-09   4.737e-09    -8.345    -8.325     0.021    -17.09
Mn(2)         1.115e-02
   Mn+2            6.312e-03   2.047e-03    -2.200    -2.689    -0.489    -17.51
   MnSO4           4.747e-03   4.979e-03    -2.324    -2.303     0.021     22.54
   MnCl+           7.515e-05   5.536e-05    -4.124    -4.257    -0.133     -2.87
   MnHCO3+         1.815e-05   1.337e-05    -4.741    -4.874    -0.133     (0)  
   MnCO3           3.230e-07   3.387e-07    -6.491    -6.470     0.021     (0)  
   MnCl2           1.530e-07   1.604e-07    -6.815    -6.795     0.021     85.89
   MnOH+           4.318e-08   3.181e-08    -7.365    -7.497    -0.133     (0)  
   MnCl3-          3.983e-10   2.934e-10    -9.400    -9.533    -0.133     44.27
   Mn(OH)3-        9.732e-21   7.169e-21   -20.012   -20.145    -0.133     (0)  
Mn(3)         1.837e-25
   Mn+3            1.837e-25   2.366e-26   -24.736   -25.626    -0.890     (0)  
Na            9.522e-03
   Na+             7.787e-03   5.811e-03    -2.109    -2.236    -0.127     -0.92
   NaSO4-          1.735e-03   1.294e-03    -2.761    -2.888    -0.127     -0.73
   NaHCO3          3.372e-07   3.709e-07    -6.472    -6.431     0.041     31.73
   NaOH            3.391e-21   3.556e-21   -20.470   -20.449     0.021     (0)  
O(0)          0.000e+00
   O2              0.000e+00   0.000e+00   -52.681   -52.660     0.021     30.40
S(-2)         2.003e-40
   H2S             2.003e-40   2.100e-40   -39.698   -39.678     0.021     36.27
   HS-             0.000e+00   0.000e+00   -40.684   -40.837    -0.152     21.00
   S-2             0.000e+00   0.000e+00   -47.441   -47.972    -0.531     (0)  
   Zn(HS)2         0.000e+00   0.000e+00   -71.010   -70.989     0.021     (0)  
   Fe(HS)2         0.000e+00   0.000e+00   -74.751   -74.730     0.021     (0)  
   (H2S)2          0.000e+00   0.000e+00   -80.654   -80.634     0.021     30.09
   Cu(HS)3-        0.000e+00   0.000e+00  -102.199  -102.327    -0.128     (0)  
   Zn(HS)3-        0.000e+00   0.000e+00  -110.538  -110.666    -0.128     (0)  
   Fe(HS)3-        0.000e+00   0.000e+00  -113.402  -113.530    -0.128     (0)  
S(6)          9.141e-02
   SO4-2           4.734e-02   1.368e-02    -1.325    -1.864    -0.539     28.42
   FeSO4           2.286e-02   2.397e-02    -1.641    -1.620     0.021     18.97
   MgSO4           7.759e-03   8.534e-03    -2.110    -2.069     0.041     -7.92
   MnSO4           4.747e-03   4.979e-03    -2.324    -2.303     0.021     22.54
   CaSO4           4.460e-03   4.677e-03    -2.351    -2.330     0.021      7.50
   NaSO4-          1.735e-03   1.294e-03    -2.761    -2.888    -0.127     -0.73
   Mg(SO4)2-2      1.068e-03   3.845e-04    -2.971    -3.415    -0.444     24.63
   ZnSO4           1.697e-04   1.779e-04    -3.770    -3.750     0.021     21.71
   Zn(SO4)2-2      6.418e-05   1.978e-05    -4.193    -4.704    -0.511    -10.01
   KSO4-           3.110e-05   2.533e-05    -4.507    -4.596    -0.089     14.03
   AlSO4+          1.699e-05   1.235e-05    -4.770    -4.908    -0.139     (0)  
   Al(SO4)2-       7.352e-06   5.342e-06    -5.134    -5.272    -0.139     (0)  
   CuSO4           5.111e-06   5.360e-06    -5.292    -5.271     0.021     13.09
   HSO4-           2.944e-06   2.194e-06    -5.531    -5.659    -0.128     40.66
   FeHSO4+         3.488e-07   2.599e-07    -6.457    -6.585    -0.128     (0)  
   CaHSO4+         6.806e-08   5.071e-08    -7.167    -7.295    -0.128     (0)  
   FeSO4+          7.168e-11   5.280e-11   -10.145   -10.277    -0.133     (0)  
   Fe(SO4)2-       2.121e-11   1.580e-11   -10.674   -10.801    -0.128     (0)  
   AlHSO4+2        5.860e-12   1.806e-12   -11.232   -11.743    -0.511     (0)  
   FeHSO4+2        7.566e-16   2.332e-16   -15.121   -15.632    -0.511     (0)  
Zn            4.244e-04
   Zn+2            1.884e-04   5.548e-05    -3.725    -4.256    -0.531    -24.48
   ZnSO4           1.697e-04   1.779e-04    -3.770    -3.750     0.021     21.71
   Zn(SO4)2-2      6.418e-05   1.978e-05    -4.193    -4.704    -0.511    -10.01
   ZnCl+           1.385e-06   9.915e-07    -5.859    -6.004    -0.145    -14.39
   ZnHCO3+         6.870e-07   5.119e-07    -6.163    -6.291    -0.128     (0)  
   ZnOH+           4.936e-08   3.678e-08    -7.307    -7.434    -0.128     (0)  
   ZnCO3           2.199e-08   2.306e-08    -7.658    -7.637     0.021     (0)  
   ZnOHCl          7.033e-09   7.375e-09    -8.153    -8.132     0.021     (0)  
   ZnCl2           6.573e-09   6.894e-09    -8.182    -8.162     0.021    102.03
   Zn(OH)2         2.435e-10   2.553e-10    -9.614    -9.593     0.021     (0)  
   ZnCl3-          7.174e-11   5.136e-11   -10.144   -10.289    -0.145     15.78
   Zn(CO3)2-2      3.333e-12   1.027e-12   -11.477   -11.988    -0.511     (0)  
   ZnCl4-2         5.803e-13   1.709e-13   -12.236   -12.767    -0.531    147.43
   Zn(OH)3-        6.552e-16   4.882e-16   -15.184   -15.311    -0.128     (0)  
   Zn(OH)4-2       1.517e-22   4.678e-23   -21.819   -22.330    -0.511     (0)  
   Zn(HS)2         0.000e+00   0.000e+00   -71.010   -70.989     0.021     (0)  
   Zn(HS)3-        0.000e+00   0.000e+00  -110.538  -110.666    -0.128     (0)  

------------------------------Saturation indices-------------------------------

  Phase               SI** log IAP   log K(298 K,   1 atm)

  Al(OH)3(a)        0.00     10.80   10.80  Al(OH)3
  AlOHSO4          -0.43     -2.63   -2.20  AlOHSO4
  Alunite           8.81      7.41   -1.40  KAl3(SO4)2(OH)6
  Anhydrite        -0.30     -4.58   -4.28  CaSO4
  Aragonite        -3.06    -11.40   -8.34  CaCO3
  Arcanite         -7.81     -9.69   -1.88  K2SO4
  Calcite          -2.92    -11.40   -8.48  CaCO3
  CH4(g)          -43.21    -46.02   -2.80  CH4
  CO2(g)           -2.10     -3.56   -1.47  CO2
  Dolomite         -5.62    -22.70  -17.08  CaMg(CO3)2
  Epsomite         -2.76     -4.50   -1.74  MgSO4:7H2O
  Fe(OH)3           0.00      4.89    4.89  Fe(OH)3
  Fe(OH)3(a)        0.00      4.89    4.89  Fe(OH)3
  FeS(ppt)        -33.15    -37.06   -3.92  FeS
  Gibbsite          2.69     10.80    8.11  Al(OH)3
  Goethite          5.89      4.89   -1.00  FeOOH
  Gypsum            0.00     -4.58   -4.58  CaSO4:2H2O
  H2(g)           -16.76    -19.86   -3.10  H2
  H2O(g)           -1.50     -0.00    1.50  H2O
  H2S(g)          -38.68    -46.62   -7.94  H2S
  Halite           -5.98     -4.41    1.57  NaCl
  Hausmannite     -17.69     43.34   61.03  Mn3O4
  Hematite         13.79      9.79   -4.01  Fe2O3
  Hexahydrite      -2.93     -4.49   -1.57  MgSO4:6H2O
  Jarosite-K       -1.10    -10.31   -9.21  KFe3(SO4)2(OH)6
  Kieserite        -3.33     -4.49   -1.16  MgSO4:H2O
  Mackinawite     -32.41    -37.06   -4.65  FeS
  Manganite        -8.11     17.23   25.34  MnOOH
  Melanterite      -1.67     -3.88   -2.21  FeSO4:7H2O
  Mirabilite       -5.11     -6.35   -1.24  Na2SO4:10H2O
  MnO2            -15.79     25.59   41.38  MnO2
  O2(g)           -49.77    -52.66   -2.89  O2
  Pyrite          -48.49    -66.97  -18.48  FeS2
  Pyrochroite      -6.33      8.87   15.20  Mn(OH)2
  Pyrolusite      -15.80     25.58   41.38  MnO2:H2O
  Rhodochrosite    -0.24    -11.37  -11.13  MnCO3
  Siderite          0.20    -10.69  -10.89  FeCO3
  Smithsonite      -2.94    -12.94  -10.00  ZnCO3
  Sphalerite      -27.69    -39.31  -11.62  ZnS
  Sulfur          -27.85    -22.97    4.88  S
  Sylvite          -6.99     -6.09    0.90  KCl
  Thenardite       -6.04     -6.34   -0.30  Na2SO4
  Zn(OH)2(e)       -4.19      7.31   11.50  Zn(OH)2

**For a gas, SI = log10(fugacity). Fugacity = pressure * phi / 1 atm.
  For ideal gases, phi = 1.


Cell 2.

Using solution 2.	Solution after simulation 1.
Using surface 2.	
Using pure phase assemblage 2.	Pure-phase assemblage after simulation 1.

-------------------------------Phase assemblage--------------------------------

                                                      Moles in assemblage
Phase               SI  log IAP  log K(T, P)   Initial       Final       Delta

Al(OH)3(a)        0.00    10.80     10.80    0.000e+00   2.796e-06   2.796e-06
AlOHSO4          -1.63    -3.83     -2.20    0.000e+00           0   0.000e+00
Calcite           0.00    -8.48     -8.48    1.179e-01   8.554e-02  -3.238e-02
Fe(OH)3           0.00     4.89      4.89    7.999e-01   8.196e-01   1.969e-02
Gypsum            0.00    -4.58     -4.58    2.866e-02   5.881e-02   3.016e-02
MnO2            -16.44    24.94     41.38    9.906e-03           0  -9.906e-03

------------------------------Surface composition------------------------------

Diffuse Double Layer Surface-Complexation Model

Surf          
	  4.293e-16  Surface + diffuse layer charge, eq
	  7.274e-02  Surface charge, eq
	  1.800e-01  sigma, C/m²
	  7.264e-02  psi, V
	 -2.827e+00  -F*psi/RT
	  5.917e-02  exp(-F*psi/RT)
	  6.000e+02  specific area, m²/g
	  3.900e+04  m² for   6.500e+01 g

	Water in diffuse layer: 3.900e-02 kg, 100.0% of total DDL-water.

	Total moles in diffuse layer (excluding water)

	Element       	     Moles
	Al            	  6.9936e-07
	C             	  3.5244e-03
	Ca            	  3.3572e-05
	Cl            	  1.7647e-03
	Cu            	  1.8441e-06
	Fe            	  8.0035e-05
	H             	  2.9780e-03
	K             	  4.2293e-06
	Mg            	  7.6437e-04
	Mn            	  2.8142e-05
	Na            	  2.3144e-04
	O             	  1.5009e-01
	S             	  3.5012e-02
	Zn            	  1.7864e-06

Surf          
	  1.500e-01  moles
	                                   Mole                     Log
	Species               Moles    Fraction    Molality    Molality

	SurfOH            7.139e-02       0.476   7.156e-02      -1.145
	SurfOH2+          3.983e-02       0.266   3.993e-02      -1.399
	SurfOMn+          3.515e-02       0.234   3.524e-02      -1.453
	SurfO-            2.932e-03       0.020   2.939e-03      -2.532
	SurfOCu+          4.503e-04       0.003   4.513e-04      -3.346
	SurfOZn+          2.435e-04       0.002   2.441e-04      -3.612

-----------------------------Solution composition------------------------------

	Elements           Molality       Moles

	Al                8.493e-06   8.473e-06
	C                 4.356e-02   4.346e-02
	Ca                1.284e-02   1.281e-02
	Cl                1.016e-02   1.013e-02
	Cu                1.008e-05   1.006e-05
	Fe                3.358e-02   3.350e-02
	K                 2.012e-04   2.007e-04
	Mg                1.560e-02   1.557e-02
	Mn                9.931e-03   9.907e-03
	Na                9.446e-03   9.424e-03
	S                 5.662e-02   5.649e-02
	Zn                2.267e-05   2.262e-05

----------------------------Description of solution----------------------------

                                       pH  =   6.316      Charge balance
                                       pe  =   1.240      Adjusted to redox equilibrium
      Specific Conductance (µS/cm,  25°C)  = 9029
                          Density (g/cm³)  =   1.00733
                               Volume (L)  =   1.00201
                        Viscosity (mPa s)  =   0.92358
                        Activity of water  =   0.997
                 Ionic strength (mol/kgw)  =   1.586e-01
                       Mass of water (kg)  =   9.976e-01
                 Total alkalinity (eq/kg)  =   3.024e-02
                       Total CO2 (mol/kg)  =   4.356e-02
                         Temperature (°C)  =  25.00
                  Electrical balance (eq)  =   5.661e-16
 Percent error, 100*(Cat-|An|)/(Cat+|An|)  =   0.00
                               Iterations  =   1 (14 overall)
                                  Total H  = 1.107779e+02
                                  Total O  = 5.571688e+01

----------------------------Distribution of species----------------------------

                                               Log       Log       Log    mole V
   Species          Molality    Activity  Molality  Activity     Gamma   cm³/mol

   H+              5.994e-07   4.836e-07    -6.222    -6.316    -0.093      0.00
   OH-             2.877e-08   2.088e-08    -7.541    -7.680    -0.139     -3.59
   H2O             5.551e+01   9.974e-01     1.744    -0.001     0.000     18.07
Al            8.493e-06
   Al(OH)4-        3.777e-06   2.814e-06    -5.423    -5.551    -0.128     (0)  
   Al(OH)2+        3.133e-06   2.382e-06    -5.504    -5.623    -0.119     (0)  
   Al(OH)3         6.978e-07   7.238e-07    -6.156    -6.140     0.016     (0)  
   AlOH+2          4.409e-07   1.473e-07    -6.356    -6.832    -0.476    -26.99
   AlSO4+          3.017e-07   2.247e-07    -6.520    -6.648    -0.128     (0)  
   Al(SO4)2-       9.427e-08   7.023e-08    -7.026    -7.153    -0.128     (0)  
   Al+3            4.970e-08   7.191e-09    -7.304    -8.143    -0.840    -40.92
   AlHSO4+2        2.937e-14   9.636e-15   -13.532   -14.016    -0.484     (0)  
C(-4)         1.196e-38
   CH4             1.196e-38   1.241e-38   -37.922   -37.906     0.016     35.46
C(4)          4.356e-02
   HCO3-           1.688e-02   1.283e-02    -1.773    -1.892    -0.119     25.05
   CO2             1.366e-02   1.399e-02    -1.865    -1.854     0.010     34.43
   FeHCO3+         9.059e-03   6.856e-03    -2.043    -2.164    -0.121     (0)  
   MnHCO3+         2.431e-03   1.832e-03    -2.614    -2.737    -0.123     (0)  
   MgHCO3+         5.699e-04   4.192e-04    -3.244    -3.378    -0.133      5.69
   CaHCO3+         5.662e-04   4.357e-04    -3.247    -3.361    -0.114      9.86
   FeCO3           1.538e-04   1.595e-04    -3.813    -3.797     0.016     (0)  
   MnCO3           1.527e-04   1.584e-04    -3.816    -3.800     0.016     (0)  
   NaHCO3          6.381e-05   6.865e-05    -4.195    -4.163     0.032     31.73
   ZnHCO3+         5.815e-06   4.401e-06    -5.235    -5.356    -0.121     (0)  
   CaCO3           5.364e-06   5.563e-06    -5.271    -5.255     0.016    -14.60
   CO3-2           3.725e-06   1.245e-06    -5.429    -5.905    -0.476     -2.44
   (CO2)2          3.464e-06   3.592e-06    -5.460    -5.445     0.016     68.87
   MgCO3           3.197e-06   3.316e-06    -5.495    -5.479     0.016    -17.09
   KHCO3           7.362e-07   7.387e-07    -6.133    -6.132     0.001     41.03
   ZnCO3           6.522e-07   6.764e-07    -6.186    -6.170     0.016     (0)  
   CuHCO3+         1.100e-07   8.328e-08    -6.958    -7.079    -0.121     (0)  
   CuCO3           8.343e-08   8.654e-08    -7.079    -7.063     0.016     (0)  
   Zn(CO3)2-2      5.485e-08   1.800e-08    -7.261    -7.745    -0.484     (0)  
   Cu(CO3)2-2      4.132e-10   1.356e-10    -9.384    -9.868    -0.484     (0)  
Ca            1.284e-02
   Ca+2            7.762e-03   2.661e-03    -2.110    -2.575    -0.465    -17.29
   CaSO4           4.508e-03   4.676e-03    -2.346    -2.330     0.016      7.50
   CaHCO3+         5.662e-04   4.357e-04    -3.247    -3.361    -0.114      9.86
   CaCO3           5.364e-06   5.563e-06    -5.271    -5.255     0.016    -14.60
   CaHSO4+         1.964e-08   1.486e-08    -7.707    -7.828    -0.121     (0)  
   CaOH+           1.203e-09   9.108e-10    -8.920    -9.041    -0.121     (0)  
Cl            1.016e-02
   Cl-             1.000e-02   7.329e-03    -2.000    -2.135    -0.135     18.41
   FeCl+           7.142e-05   5.405e-05    -4.146    -4.267    -0.121     (0)  
   MnCl+           6.346e-05   4.783e-05    -4.198    -4.320    -0.123     -2.89
   CuCl2-          9.027e-06   6.641e-06    -5.044    -5.178    -0.133     (0)  
   CuCl3-2         2.390e-07   7.714e-08    -6.622    -7.113    -0.491     (0)  
   MnCl2           1.475e-07   1.530e-07    -6.831    -6.815     0.016     85.89
   ZnCl+           7.304e-08   5.373e-08    -7.136    -7.270    -0.133    -14.24
   ZnOHCl          1.315e-09   1.363e-09    -8.881    -8.865     0.016     (0)  
   HCl             1.045e-09   1.221e-09    -8.981    -8.913     0.067     (0)  
   MnCl3-          4.098e-10   3.089e-10    -9.387    -9.510    -0.123     44.09
   ZnCl2           3.976e-10   4.124e-10    -9.401    -9.385     0.016    102.03
   CuCl+           3.472e-10   2.554e-10    -9.459    -9.593    -0.133      1.06
   ZnCl3-          4.610e-12   3.391e-12   -11.336   -11.470    -0.133     16.10
   CuCl2           9.692e-13   1.005e-12   -12.014   -11.998     0.016     31.02
   ZnCl4-2         3.860e-14   1.246e-14   -13.413   -13.905    -0.491    147.06
   FeCl+2          6.081e-15   1.963e-15   -14.216   -14.707    -0.491     (0)  
   FeCl2+          8.525e-17   6.425e-17   -16.069   -16.192    -0.123     (0)  
   CuCl3-          3.554e-17   2.614e-17   -16.449   -16.583    -0.133     (0)  
   FeCl3           4.540e-20   4.709e-20   -19.343   -19.327     0.016     (0)  
   CuCl4-2         2.975e-21   9.602e-22   -20.526   -21.018    -0.491     (0)  
Cu(1)         9.823e-06
   CuCl2-          9.027e-06   6.641e-06    -5.044    -5.178    -0.133     (0)  
   Cu+             5.561e-07   3.910e-07    -6.255    -6.408    -0.153     (0)  
   CuCl3-2         2.390e-07   7.714e-08    -6.622    -7.113    -0.491     (0)  
Cu(2)         2.578e-07
   CuHCO3+         1.100e-07   8.328e-08    -6.958    -7.079    -0.121     (0)  
   CuCO3           8.343e-08   8.654e-08    -7.079    -7.063     0.016     (0)  
   Cu+2            3.693e-08   1.295e-08    -7.433    -7.888    -0.455    -25.83
   CuSO4           2.519e-08   2.612e-08    -7.599    -7.583     0.016     13.09
   Cu(OH)2         1.109e-09   1.151e-09    -8.955    -8.939     0.016     (0)  
   Cu(CO3)2-2      4.132e-10   1.356e-10    -9.384    -9.868    -0.484     (0)  
   CuOH+           3.630e-10   2.670e-10    -9.440    -9.573    -0.133     (0)  
   CuCl+           3.472e-10   2.554e-10    -9.459    -9.593    -0.133      1.06
   CuCl2           9.692e-13   1.005e-12   -12.014   -11.998     0.016     31.02
   Cu2(OH)2+2      9.510e-14   3.120e-14   -13.022   -13.506    -0.484     (0)  
   Cu(OH)3-        1.890e-16   1.430e-16   -15.724   -15.845    -0.121     (0)  
   CuCl3-          3.554e-17   2.614e-17   -16.449   -16.583    -0.133     (0)  
   CuCl4-2         2.975e-21   9.602e-22   -20.526   -21.018    -0.491     (0)  
   Cu(OH)4-2       1.794e-22   5.885e-23   -21.746   -22.230    -0.484     (0)  
   Cu(HS)3-        0.000e+00   0.000e+00   -87.199   -87.320    -0.121     (0)  
Fe(2)         3.358e-02
   Fe+2            1.524e-02   5.343e-03    -1.817    -2.272    -0.455    -21.32
   FeHCO3+         9.059e-03   6.856e-03    -2.043    -2.164    -0.121     (0)  
   FeSO4           9.053e-03   9.389e-03    -2.043    -2.027     0.016     18.97
   FeCO3           1.538e-04   1.595e-04    -3.813    -3.797     0.016     (0)  
   FeCl+           7.142e-05   5.405e-05    -4.146    -4.267    -0.121     (0)  
   FeOH+           4.623e-06   3.485e-06    -5.335    -5.458    -0.123     (0)  
   FeHSO4+         3.943e-08   2.984e-08    -7.404    -7.525    -0.121     (0)  
   Fe(OH)2         5.898e-11   6.117e-11   -10.229   -10.213     0.016     (0)  
   Fe(OH)3-        6.219e-15   4.688e-15   -14.206   -14.329    -0.123     (0)  
   Fe(HS)2         0.000e+00   0.000e+00   -63.560   -63.544     0.016     (0)  
   Fe(HS)3-        0.000e+00   0.000e+00   -96.497   -96.617    -0.121     (0)  
Fe(3)         1.272e-07
   Fe(OH)2+        1.061e-07   8.065e-08    -6.974    -7.093    -0.119     (0)  
   Fe(OH)3         2.066e-08   2.143e-08    -7.685    -7.669     0.016     (0)  
   FeOH+2          3.659e-10   1.181e-10    -9.437    -9.928    -0.491     (0)  
   Fe(OH)4-        5.302e-11   4.031e-11   -10.276   -10.395    -0.119     (0)  
   FeSO4+          1.275e-12   9.609e-13   -11.895   -12.017    -0.123     (0)  
   Fe(SO4)2-       2.745e-13   2.078e-13   -12.561   -12.682    -0.121     (0)  
   Fe+3            6.128e-14   8.867e-15   -13.213   -14.052    -0.840     (0)  
   FeCl+2          6.081e-15   1.963e-15   -14.216   -14.707    -0.491     (0)  
   FeCl2+          8.525e-17   6.425e-17   -16.069   -16.192    -0.123     (0)  
   Fe2(OH)2+4      3.238e-17   3.753e-19   -16.490   -18.426    -1.936     (0)  
   FeHSO4+2        3.792e-18   1.244e-18   -17.421   -17.905    -0.484     (0)  
   FeCl3           4.540e-20   4.709e-20   -19.343   -19.327     0.016     (0)  
   Fe3(OH)4+5      6.696e-21   6.324e-24   -20.174   -23.199    -3.025     (0)  
H(0)          1.057e-18
   H2              5.284e-19   5.481e-19   -18.277   -18.261     0.016     28.61
K             2.012e-04
   K+              1.766e-04   1.289e-04    -3.753    -3.890    -0.137      9.30
   KSO4-           2.378e-05   1.938e-05    -4.624    -4.713    -0.089     14.14
   KHCO3           7.362e-07   7.387e-07    -6.133    -6.132     0.001     41.03
Mg            1.560e-02
   Mg+2            7.702e-03   2.792e-03    -2.113    -2.554    -0.441    -21.00
   MgSO4           6.715e-03   7.224e-03    -2.173    -2.141     0.032     -7.92
   Mg(SO4)2-2      6.137e-04   2.351e-04    -3.212    -3.629    -0.417     22.91
   MgHCO3+         5.699e-04   4.192e-04    -3.244    -3.378    -0.133      5.69
   MgCO3           3.197e-06   3.316e-06    -5.495    -5.479     0.016    -17.09
   MgOH+           2.692e-08   2.091e-08    -7.570    -7.680    -0.110     (0)  
Mn(2)         9.931e-03
   Mn+2            4.569e-03   1.602e-03    -2.340    -2.795    -0.455    -17.75
   MnSO4           2.714e-03   2.815e-03    -2.566    -2.550     0.016     22.54
   MnHCO3+         2.431e-03   1.832e-03    -2.614    -2.737    -0.123     (0)  
   MnCO3           1.527e-04   1.584e-04    -3.816    -3.800     0.016     (0)  
   MnCl+           6.346e-05   4.783e-05    -4.198    -4.320    -0.123     -2.89
   MnCl2           1.475e-07   1.530e-07    -6.831    -6.815     0.016     85.89
   MnOH+           1.127e-07   8.493e-08    -6.948    -7.071    -0.123     (0)  
   MnCl3-          4.098e-10   3.089e-10    -9.387    -9.510    -0.123     44.09
   Mn(OH)3-        2.956e-19   2.228e-19   -18.529   -18.652    -0.123     (0)  
Mn(3)         5.946e-27
   Mn+3            5.946e-27   8.604e-28   -26.226   -27.065    -0.840     (0)  
Na            9.446e-03
   Na+             8.085e-03   6.142e-03    -2.092    -2.212    -0.119     -0.99
   NaSO4-          1.297e-03   9.880e-04    -2.887    -3.005    -0.118     -2.43
   NaHCO3          6.381e-05   6.865e-05    -4.195    -4.163     0.032     31.73
   NaOH            1.236e-20   1.282e-20   -19.908   -19.892     0.016     (0)  
O(0)          0.000e+00
   O2              0.000e+00   0.000e+00   -55.876   -55.860     0.016     30.40
S(-2)         4.227e-35
   H2S             3.159e-35   3.276e-35   -34.500   -34.485     0.016     36.27
   HS-             1.068e-35   7.749e-36   -34.971   -35.111    -0.139     20.95
   S-2             0.000e+00   0.000e+00   -41.222   -41.713    -0.491     (0)  
   Zn(HS)2         0.000e+00   0.000e+00   -60.862   -60.846     0.016     (0)  
   Fe(HS)2         0.000e+00   0.000e+00   -63.560   -63.544     0.016     (0)  
   (H2S)2          0.000e+00   0.000e+00   -70.263   -70.247     0.016     30.09
   Cu(HS)3-        0.000e+00   0.000e+00   -87.199   -87.320    -0.121     (0)  
   Zn(HS)3-        0.000e+00   0.000e+00   -94.676   -94.797    -0.121     (0)  
   Fe(HS)3-        0.000e+00   0.000e+00   -96.497   -96.617    -0.121     (0)  
S(6)          5.662e-02
   SO4-2           3.107e-02   9.883e-03    -1.508    -2.005    -0.497     26.82
   FeSO4           9.053e-03   9.389e-03    -2.043    -2.027     0.016     18.97
   MgSO4           6.715e-03   7.224e-03    -2.173    -2.141     0.032     -7.92
   CaSO4           4.508e-03   4.676e-03    -2.346    -2.330     0.016      7.50
   MnSO4           2.714e-03   2.815e-03    -2.566    -2.550     0.016     22.54
   NaSO4-          1.297e-03   9.880e-04    -2.887    -3.005    -0.118     -2.43
   Mg(SO4)2-2      6.137e-04   2.351e-04    -3.212    -3.629    -0.417     22.91
   KSO4-           2.378e-05   1.938e-05    -4.624    -4.713    -0.089     14.14
   ZnSO4           6.084e-06   6.311e-06    -5.216    -5.200     0.016     21.71
   Zn(SO4)2-2      1.545e-06   5.069e-07    -5.811    -6.295    -0.484    -10.58
   HSO4-           6.139e-07   4.646e-07    -6.212    -6.333    -0.121     40.61
   AlSO4+          3.017e-07   2.247e-07    -6.520    -6.648    -0.128     (0)  
   Al(SO4)2-       9.427e-08   7.023e-08    -7.026    -7.153    -0.128     (0)  
   FeHSO4+         3.943e-08   2.984e-08    -7.404    -7.525    -0.121     (0)  
   CuSO4           2.519e-08   2.612e-08    -7.599    -7.583     0.016     13.09
   CaHSO4+         1.964e-08   1.486e-08    -7.707    -7.828    -0.121     (0)  
   FeSO4+          1.275e-12   9.609e-13   -11.895   -12.017    -0.123     (0)  
   Fe(SO4)2-       2.745e-13   2.078e-13   -12.561   -12.682    -0.121     (0)  
   AlHSO4+2        2.937e-14   9.636e-15   -13.532   -14.016    -0.484     (0)  
   FeHSO4+2        3.792e-18   1.244e-18   -17.421   -17.905    -0.484     (0)  
Zn            2.267e-05
   Zn+2            8.440e-06   2.724e-06    -5.074    -5.565    -0.491    -24.55
   ZnSO4           6.084e-06   6.311e-06    -5.216    -5.200     0.016     21.71
   ZnHCO3+         5.815e-06   4.401e-06    -5.235    -5.356    -0.121     (0)  
   Zn(SO4)2-2      1.545e-06   5.069e-07    -5.811    -6.295    -0.484    -10.58
   ZnCO3           6.522e-07   6.764e-07    -6.186    -6.170     0.016     (0)  
   ZnCl+           7.304e-08   5.373e-08    -7.136    -7.270    -0.133    -14.24
   Zn(CO3)2-2      5.485e-08   1.800e-08    -7.261    -7.745    -0.484     (0)  
   ZnOH+           8.139e-09   6.160e-09    -8.089    -8.210    -0.121     (0)  
   ZnOHCl          1.315e-09   1.363e-09    -8.881    -8.865     0.016     (0)  
   ZnCl2           3.976e-10   4.124e-10    -9.401    -9.385     0.016    102.03
   Zn(OH)2         1.406e-10   1.459e-10    -9.852    -9.836     0.016     (0)  
   ZnCl3-          4.610e-12   3.391e-12   -11.336   -11.470    -0.133     16.10
   ZnCl4-2         3.860e-14   1.246e-14   -13.413   -13.905    -0.491    147.06
   Zn(OH)3-        1.257e-15   9.515e-16   -14.901   -15.022    -0.121     (0)  
   Zn(OH)4-2       9.479e-22   3.110e-22   -21.023   -21.507    -0.484     (0)  
   Zn(HS)2         0.000e+00   0.000e+00   -60.862   -60.846     0.016     (0)  
   Zn(HS)3-        0.000e+00   0.000e+00   -94.676   -94.797    -0.121     (0)  

------------------------------Saturation indices-------------------------------

  Phase               SI** log IAP   log K(298 K,   1 atm)

  Al(OH)3(a)        0.00     10.80   10.80  Al(OH)3
  AlOHSO4          -1.63     -3.83   -2.20  AlOHSO4
  Alunite           6.96      5.56   -1.40  KAl3(SO4)2(OH)6
  Anhydrite        -0.30     -4.58   -4.28  CaSO4
  Aragonite        -0.14     -8.48   -8.34  CaCO3
  Arcanite         -7.91     -9.78   -1.88  K2SO4
  Calcite           0.00     -8.48   -8.48  CaCO3
  CH4(g)          -35.10    -37.91   -2.80  CH4
  CO2(g)           -0.39     -1.85   -1.47  CO2
  Dolomite          0.14    -16.94  -17.08  CaMg(CO3)2
  Epsomite         -2.83     -4.57   -1.74  MgSO4:7H2O
  Fe(OH)3           0.00      4.89    4.89  Fe(OH)3
  Fe(OH)3(a)        0.00      4.89    4.89  Fe(OH)3
  FeS(ppt)        -27.15    -31.07   -3.92  FeS
  Gibbsite          2.69     10.80    8.11  Al(OH)3
  Goethite          5.89      4.89   -1.00  FeOOH
  Gypsum            0.00     -4.58   -4.58  CaSO4:2H2O
  H2(g)           -15.16    -18.26   -3.10  H2
  H2O(g)           -1.50     -0.00    1.50  H2O
  H2S(g)          -33.49    -41.43   -7.94  H2S
  Halite           -5.92     -4.35    1.57  NaCl
  Hausmannite     -16.42     44.61   61.03  Mn3O4
  Hematite         13.79      9.79   -4.01  Fe2O3
  Hexahydrite      -3.00     -4.57   -1.57  MgSO4:6H2O
  Jarosite-K       -2.96    -12.17   -9.21  KFe3(SO4)2(OH)6
  Kieserite        -3.40     -4.56   -1.16  MgSO4:H2O
  Mackinawite     -26.42    -31.07   -4.65  FeS
  Manganite        -7.95     17.39   25.34  MnOOH
  Melanterite      -2.08     -4.29   -2.21  FeSO4:7H2O
  Mirabilite       -5.20     -6.44   -1.24  Na2SO4:10H2O
  MnO2            -16.44     24.94   41.38  MnO2
  O2(g)           -52.97    -55.86   -2.89  O2
[...]
	  3.900e+04  m² for   6.500e+01 g

	Water in diffuse layer: 3.900e-02 kg, 100.0% of total DDL-water.

	Total moles in diffuse layer (excluding water)

	Element       	     Moles
	Al            	  3.3499e-06
	C             	  4.1789e-04
	Ca            	  1.1318e-04
	Cl            	  1.1565e-03
	Cu            	  7.6827e-05
	Fe            	  5.5764e-04
	H             	  4.0221e-04
	K             	  4.7459e-06
	Mg            	  6.0703e-04
	Mn            	  4.6213e-06
	Na            	  2.5025e-04
	O             	  7.8631e-02
	S             	  1.9344e-02
	Zn            	  2.9303e-09

Surf          
	  1.500e-01  moles
	                                   Mole                     Log
	Species               Moles    Fraction    Molality    Molality

	SurfOH            8.890e-02       0.593   8.895e-02      -1.051
	SurfOMn+          3.267e-02       0.218   3.269e-02      -1.486
	SurfOH2+          1.526e-02       0.102   1.527e-02      -1.816
	SurfO-            1.186e-02       0.079   1.187e-02      -1.926
	SurfOCu+          1.297e-03       0.009   1.298e-03      -2.887
	SurfOZn+          1.037e-05       0.000   1.038e-05      -4.984

-----------------------------Solution composition------------------------------

	Elements           Molality       Moles

	Al                2.841e-05   2.839e-05
	C                 6.854e-03   6.850e-03
	Ca                1.100e-02   1.099e-02
	Cl                9.504e-03   9.498e-03
	Cu                6.517e-04   6.513e-04
	Fe                5.299e-02   5.296e-02
	K                 2.028e-04   2.027e-04
	Mg                1.588e-02   1.587e-02
	Mn                4.215e-04   4.213e-04
	Na                9.529e-03   9.524e-03
	S                 7.723e-02   7.719e-02
	Zn                4.604e-08   4.602e-08

----------------------------Description of solution----------------------------

                                       pH  =   7.168      Charge balance
                                       pe  =  -1.579      Adjusted to redox equilibrium
      Specific Conductance (µS/cm,  25°C)  = 10070
                          Density (g/cm³)  =   1.00838
                               Volume (L)  =   1.00327
                        Viscosity (mPa s)  =   0.91528
                        Activity of water  =   0.998
                 Ionic strength (mol/kgw)  =   1.819e-01
                       Mass of water (kg)  =   9.994e-01
                 Total alkalinity (eq/kg)  =   7.064e-03
                       Total CO2 (mol/kg)  =   6.854e-03
                         Temperature (°C)  =  25.00
                  Electrical balance (eq)  =   4.879e-15
 Percent error, 100*(Cat-|An|)/(Cat+|An|)  =   0.00
                               Iterations  =   1 (9 overall)
                                  Total H  = 1.109562e+02
                                  Total O  = 5.580406e+01

----------------------------Distribution of species----------------------------

                                               Log       Log       Log    mole V
   Species          Molality    Activity  Molality  Activity     Gamma   cm³/mol

   OH-             2.082e-07   1.488e-07    -6.682    -6.828    -0.146     -3.54
   H+              8.471e-08   6.788e-08    -7.072    -7.168    -0.096      0.00
   H2O             5.551e+01   9.976e-01     1.744    -0.001     0.000     18.07
Al            2.841e-05
   Al(OH)4-        2.726e-05   2.005e-05    -4.565    -4.698    -0.133     (0)  
   Al(OH)3         6.941e-07   7.238e-07    -6.159    -6.140     0.018     (0)  
   Al(OH)2+        4.445e-07   3.342e-07    -6.352    -6.476    -0.124     (0)  
   AlOH+2          9.078e-09   2.902e-09    -8.042    -8.537    -0.495    -26.96
   AlSO4+          1.059e-09   7.790e-10    -8.975    -9.108    -0.133     (0)  
   Al(SO4)2-       4.151e-10   3.053e-10    -9.382    -9.515    -0.133     (0)  
   Al+3            1.460e-10   1.988e-11    -9.836   -10.702    -0.866    -40.86
   AlHSO4+2        1.478e-17   4.689e-18   -16.830   -17.329    -0.499     (0)  
C(-4)         1.592e-24
   CH4             1.592e-24   1.660e-24   -23.798   -23.780     0.018     35.46
C(4)          6.854e-03
   HCO3-           3.006e-03   2.260e-03    -2.522    -2.646    -0.124     25.10
   FeHCO3+         2.934e-03   2.202e-03    -2.533    -2.657    -0.125     (0)  
   FeCO3           3.500e-04   3.650e-04    -3.456    -3.438     0.018     (0)  
   CO2             3.363e-04   3.457e-04    -3.473    -3.461     0.012     34.43
   MgHCO3+         9.287e-05   6.737e-05    -4.032    -4.172    -0.139      5.71
   CaHCO3+         8.028e-05   6.115e-05    -4.095    -4.214    -0.118      9.87
   MnHCO3+         2.070e-05   1.542e-05    -4.684    -4.812    -0.128     (0)  
   NaHCO3          1.079e-05   1.173e-05    -4.967    -4.931     0.036     31.73
   MnCO3           9.106e-06   9.495e-06    -5.041    -5.022     0.018     (0)  
   CaCO3           5.335e-06   5.563e-06    -5.273    -5.255     0.018    -14.60
   CO3-2           4.885e-06   1.561e-06    -5.311    -5.806    -0.495     -2.31
   MgCO3           3.641e-06   3.796e-06    -5.439    -5.421     0.018    -17.09
   KHCO3           1.256e-07   1.261e-07    -6.901    -6.899     0.002     41.03
   CuCO3           1.542e-08   1.608e-08    -7.812    -7.794     0.018     (0)  
   CuHCO3+         2.894e-09   2.172e-09    -8.538    -8.663    -0.125     (0)  
   ZnHCO3+         2.262e-09   1.697e-09    -8.646    -8.770    -0.125     (0)  
   (CO2)2          2.104e-09   2.194e-09    -8.677    -8.659     0.018     68.87
   ZnCO3           1.783e-09   1.859e-09    -8.749    -8.731     0.018     (0)  
   Zn(CO3)2-2      1.956e-10   6.205e-11    -9.709   -10.207    -0.499     (0)  
   Cu(CO3)2-2      9.965e-11   3.161e-11   -10.002   -10.500    -0.499     (0)  
Ca            1.100e-02
   Ca+2            6.429e-03   2.121e-03    -2.192    -2.673    -0.482    -17.24
   CaSO4           4.483e-03   4.675e-03    -2.348    -2.330     0.018      7.50
   CaHCO3+         8.028e-05   6.115e-05    -4.095    -4.214    -0.118      9.87
   CaCO3           5.335e-06   5.563e-06    -5.273    -5.255     0.018    -14.60
   CaOH+           6.893e-09   5.173e-09    -8.162    -8.286    -0.125     (0)  
   CaHSO4+         2.779e-09   2.086e-09    -8.556    -8.681    -0.125     (0)  
Cl            9.504e-03
   Cl-             8.190e-03   5.918e-03    -2.087    -2.228    -0.141     18.44
   CuCl2-          5.834e-04   4.232e-04    -3.234    -3.373    -0.139     (0)  
   FeCl+           1.061e-04   7.960e-05    -3.974    -4.099    -0.125     (0)  
   CuCl3-2         1.289e-05   3.969e-06    -4.890    -5.401    -0.512     (0)  
   MnCl+           2.478e-06   1.846e-06    -5.606    -5.734    -0.128     -2.88
   MnCl2           4.572e-09   4.768e-09    -8.340    -8.322     0.018     85.89
   ZnCl+           1.310e-10   9.503e-11    -9.883   -10.022    -0.139    -14.32
   HCl             1.158e-10   1.384e-10    -9.936    -9.859     0.077     (0)  
   CuCl+           4.211e-11   3.055e-11   -10.376   -10.515    -0.139      1.11
   ZnOHCl          1.648e-11   1.718e-11   -10.783   -10.765     0.018     (0)  
   MnCl3-          1.043e-11   7.771e-12   -10.982   -11.109    -0.128     44.18
   ZnCl2           5.648e-13   5.889e-13   -12.248   -12.230     0.018    102.03
   CuCl2           9.310e-14   9.708e-14   -13.031   -13.013     0.018     31.02
   ZnCl3-          5.390e-15   3.910e-15   -14.268   -14.408    -0.139     15.95
   ZnCl4-2         3.768e-17   1.160e-17   -16.424   -16.936    -0.512    147.24
   FeCl+2          1.423e-17   4.380e-18   -16.847   -17.358    -0.512     (0)  
   CuCl3-          2.810e-18   2.038e-18   -17.551   -17.691    -0.139     (0)  
   FeCl2+          1.555e-19   1.158e-19   -18.808   -18.936    -0.128     (0)  
   CuCl4-2         1.964e-22   6.046e-23   -21.707   -22.219    -0.512     (0)  
   FeCl3           6.571e-23   6.853e-23   -22.182   -22.164     0.018     (0)  
Cu(1)         6.516e-04
   CuCl2-          5.834e-04   4.232e-04    -3.234    -3.373    -0.139     (0)  
   Cu+             5.537e-05   3.821e-05    -4.257    -4.418    -0.161     (0)  
   CuCl3-2         1.289e-05   3.969e-06    -4.890    -5.401    -0.512     (0)  
Cu(2)         3.750e-08
   CuCO3           1.542e-08   1.608e-08    -7.812    -7.794     0.018     (0)  
   Cu(OH)2         8.299e-09   8.654e-09    -8.081    -8.063     0.018     (0)  
   Cu+2            5.695e-09   1.918e-09    -8.244    -8.717    -0.473    -25.79
   CuSO4           4.654e-09   4.853e-09    -8.332    -8.314     0.018     13.09
   CuHCO3+         2.894e-09   2.172e-09    -8.538    -8.663    -0.125     (0)  
   CuOH+           3.885e-10   2.819e-10    -9.411    -9.550    -0.139     (0)  
   Cu(CO3)2-2      9.965e-11   3.161e-11   -10.002   -10.500    -0.499     (0)  
   CuCl+           4.211e-11   3.055e-11   -10.376   -10.515    -0.139      1.11
   Cu2(OH)2+2      1.096e-13   3.476e-14   -12.960   -13.459    -0.499     (0)  
   CuCl2           9.310e-14   9.708e-14   -13.031   -13.013     0.018     31.02
   Cu(OH)3-        1.021e-14   7.664e-15   -13.991   -14.116    -0.125     (0)  
   CuCl3-          2.810e-18   2.038e-18   -17.551   -17.691    -0.139     (0)  
   Cu(OH)4-2       7.084e-20   2.247e-20   -19.150   -19.648    -0.499     (0)  
   CuCl4-2         1.964e-22   6.046e-23   -21.707   -22.219    -0.512     (0)  
   Cu(HS)3-        0.000e+00   0.000e+00   -43.088   -43.213    -0.125     (0)  
Fe(2)         5.299e-02
   Fe+2            2.894e-02   9.744e-03    -1.539    -2.011    -0.473    -21.28
   FeSO4           2.060e-02   2.148e-02    -1.686    -1.668     0.018     18.97
   FeHCO3+         2.934e-03   2.202e-03    -2.533    -2.657    -0.125     (0)  
   FeCO3           3.500e-04   3.650e-04    -3.456    -3.438     0.018     (0)  
   FeCl+           1.061e-04   7.960e-05    -3.974    -4.099    -0.125     (0)  
   FeOH+           6.080e-05   4.529e-05    -4.216    -4.344    -0.128     (0)  
   FeHSO4+         1.277e-08   9.582e-09    -7.894    -8.019    -0.125     (0)  
   Fe(OH)2         5.432e-09   5.665e-09    -8.265    -8.247     0.018     (0)  
   Fe(OH)3-        4.153e-12   3.093e-12   -11.382   -11.510    -0.128     (0)  
   Fe(HS)2         4.539e-34   4.733e-34   -33.343   -33.325     0.018     (0)  
   Fe(HS)3-        0.000e+00   0.000e+00   -51.295   -51.420    -0.125     (0)  
Fe(3)         3.599e-08
   Fe(OH)3         2.055e-08   2.143e-08    -7.687    -7.669     0.018     (0)  
   Fe(OH)2+        1.505e-08   1.132e-08    -7.822    -7.946    -0.124     (0)  
   Fe(OH)4-        3.820e-10   2.872e-10    -9.418    -9.542    -0.124     (0)  
   FeOH+2          7.555e-12   2.326e-12   -11.122   -11.633    -0.512     (0)  
   FeSO4+          4.472e-15   3.331e-15   -14.350   -14.477    -0.128     (0)  
   Fe(SO4)2-       1.203e-15   9.032e-16   -14.920   -15.044    -0.125     (0)  
   Fe+3            1.800e-16   2.451e-17   -15.745   -16.611    -0.866     (0)  
   FeCl+2          1.423e-17   4.380e-18   -16.847   -17.358    -0.512     (0)  
   FeCl2+          1.555e-19   1.158e-19   -18.808   -18.936    -0.128     (0)  
   Fe2(OH)2+4      1.438e-20   1.456e-22   -19.842   -21.837    -1.994     (0)  
   FeHSO4+2        1.908e-21   6.054e-22   -20.719   -21.218    -0.499     (0)  
   FeCl3           6.571e-23   6.853e-23   -22.182   -22.164     0.018     (0)  
   Fe3(OH)4+5      4.501e-25   3.443e-28   -24.347   -27.463    -3.116     (0)  
H(0)          9.018e-15
   H2              4.509e-15   4.702e-15   -14.346   -14.328     0.018     28.61
K             2.028e-04
   K+              1.738e-04   1.250e-04    -3.760    -3.903    -0.143      9.33
   KSO4-           2.894e-05   2.357e-05    -4.538    -4.628    -0.089     14.09
   KHCO3           1.256e-07   1.261e-07    -6.901    -6.899     0.002     41.03
Mg            1.588e-02
   MgSO4           7.604e-03   8.268e-03    -2.119    -2.083     0.036     -7.92
   Mg+2            7.265e-03   2.548e-03    -2.139    -2.594    -0.455    -20.95
   Mg(SO4)2-2      9.101e-04   3.375e-04    -3.041    -3.472    -0.431     23.80
   MgHCO3+         9.287e-05   6.737e-05    -4.032    -4.172    -0.139      5.71
   MgCO3           3.641e-06   3.796e-06    -5.439    -5.421     0.018    -17.09
   MgOH+           1.767e-07   1.360e-07    -6.753    -6.867    -0.114     (0)  
Mn(2)         4.215e-04
   Mn+2            2.274e-04   7.656e-05    -3.643    -4.116    -0.473    -17.63
   MnSO4           1.618e-04   1.687e-04    -3.791    -3.773     0.018     22.54
   MnHCO3+         2.070e-05   1.542e-05    -4.684    -4.812    -0.128     (0)  
   MnCO3           9.106e-06   9.495e-06    -5.041    -5.022     0.018     (0)  
   MnCl+           2.478e-06   1.846e-06    -5.606    -5.734    -0.128     -2.88
   MnOH+           3.883e-08   2.892e-08    -7.411    -7.539    -0.128     (0)  
   MnCl2           4.572e-09   4.768e-09    -8.340    -8.322     0.018     85.89
   MnCl3-          1.043e-11   7.771e-12   -10.982   -11.109    -0.128     44.18
   Mn(OH)3-        5.171e-18   3.852e-18   -17.286   -17.414    -0.128     (0)  
Mn(3)         4.576e-31
   Mn+3            4.576e-31   6.232e-32   -30.340   -31.205    -0.866     (0)  
Na            9.529e-03
   Na+             7.923e-03   5.962e-03    -2.101    -2.225    -0.123     -0.96
   NaSO4-          1.596e-03   1.203e-03    -2.797    -2.920    -0.123     -1.56
   NaHCO3          1.079e-05   1.173e-05    -4.967    -4.931     0.036     31.73
   NaOH            8.504e-20   8.868e-20   -19.070   -19.052     0.018     (0)  
O(0)          0.000e+00
   O2              0.000e+00   0.000e+00   -63.745   -63.727     0.018     30.40
S(-2)         1.453e-20
   HS-             1.033e-20   7.382e-21   -19.986   -20.132    -0.146     20.98
   H2S             4.201e-21   4.381e-21   -20.377   -20.358     0.018     36.27
   S-2             4.267e-26   1.314e-26   -25.370   -25.882    -0.512     (0)  
   Fe(HS)2         4.539e-34   4.733e-34   -33.343   -33.325     0.018     (0)  
   Zn(HS)2         2.716e-34   2.832e-34   -33.566   -33.548     0.018     (0)  
   (H2S)2          0.000e+00   0.000e+00   -42.013   -41.995     0.018     30.09
   Cu(HS)3-        0.000e+00   0.000e+00   -43.088   -43.213    -0.125     (0)  
   Fe(HS)3-        0.000e+00   0.000e+00   -51.295   -51.420    -0.125     (0)  
   Zn(HS)3-        0.000e+00   0.000e+00   -52.395   -52.520    -0.125     (0)  
S(6)          7.723e-02
   SO4-2           4.094e-02   1.239e-02    -1.388    -1.907    -0.519     27.62
   FeSO4           2.060e-02   2.148e-02    -1.686    -1.668     0.018     18.97
   MgSO4           7.604e-03   8.268e-03    -2.119    -2.083     0.036     -7.92
   CaSO4           4.483e-03   4.675e-03    -2.348    -2.330     0.018      7.50
   NaSO4-          1.596e-03   1.203e-03    -2.797    -2.920    -0.123     -1.56
   Mg(SO4)2-2      9.101e-04   3.375e-04    -3.041    -3.472    -0.431     23.80
   MnSO4           1.618e-04   1.687e-04    -3.791    -3.773     0.018     22.54
   KSO4-           2.894e-05   2.357e-05    -4.538    -4.628    -0.089     14.09
   HSO4-           1.090e-07   8.179e-08    -6.963    -7.087    -0.125     40.63
   ZnSO4           1.662e-08   1.734e-08    -7.779    -7.761     0.018     21.71
   FeHSO4+         1.277e-08   9.582e-09    -7.894    -8.019    -0.125     (0)  
   Zn(SO4)2-2      5.505e-09   1.746e-09    -8.259    -8.758    -0.499    -10.30
   CuSO4           4.654e-09   4.853e-09    -8.332    -8.314     0.018     13.09
   CaHSO4+         2.779e-09   2.086e-09    -8.556    -8.681    -0.125     (0)  
   AlSO4+          1.059e-09   7.790e-10    -8.975    -9.108    -0.133     (0)  
   Al(SO4)2-       4.151e-10   3.053e-10    -9.382    -9.515    -0.133     (0)  
   FeSO4+          4.472e-15   3.331e-15   -14.350   -14.477    -0.128     (0)  
   Fe(SO4)2-       1.203e-15   9.032e-16   -14.920   -15.044    -0.125     (0)  
   AlHSO4+2        1.478e-17   4.689e-18   -16.830   -17.329    -0.499     (0)  
   FeHSO4+2        1.908e-21   6.054e-22   -20.719   -21.218    -0.499     (0)  
Zn            4.604e-08
   Zn+2            1.938e-08   5.966e-09    -7.713    -8.224    -0.512    -24.51
   ZnSO4           1.662e-08   1.734e-08    -7.779    -7.761     0.018     21.71
   Zn(SO4)2-2      5.505e-09   1.746e-09    -8.259    -8.758    -0.499    -10.30
   ZnHCO3+         2.262e-09   1.697e-09    -8.646    -8.770    -0.125     (0)  
   ZnCO3           1.783e-09   1.859e-09    -8.749    -8.731     0.018     (0)  
   Zn(CO3)2-2      1.956e-10   6.205e-11    -9.709   -10.207    -0.499     (0)  
   ZnCl+           1.310e-10   9.503e-11    -9.883   -10.022    -0.139    -14.32
   ZnOH+           1.281e-10   9.615e-11    -9.892   -10.017    -0.125     (0)  
   ZnOHCl          1.648e-11   1.718e-11   -10.783   -10.765     0.018     (0)  
   Zn(OH)2         1.556e-11   1.622e-11   -10.808   -10.790     0.018     (0)  
   ZnCl2           5.648e-13   5.889e-13   -12.248   -12.230     0.018    102.03
   ZnCl3-          5.390e-15   3.910e-15   -14.268   -14.408    -0.139     15.95
   Zn(OH)3-        1.005e-15   7.540e-16   -14.998   -15.123    -0.125     (0)  
   ZnCl4-2         3.768e-17   1.160e-17   -16.424   -16.936    -0.512    147.24
   Zn(OH)4-2       5.536e-21   1.756e-21   -20.257   -20.755    -0.499     (0)  
   Zn(HS)2         2.716e-34   2.832e-34   -33.566   -33.548     0.018     (0)  
   Zn(HS)3-        0.000e+00   0.000e+00   -52.395   -52.520    -0.125     (0)  

------------------------------Saturation indices-------------------------------

  Phase               SI** log IAP   log K(298 K,   1 atm)

  Al(OH)3(a)        0.00     10.80   10.80  Al(OH)3
  AlOHSO4          -3.24     -5.44   -2.20  AlOHSO4
  Alunite           4.58      3.18   -1.40  KAl3(SO4)2(OH)6
  Anhydrite        -0.30     -4.58   -4.28  CaSO4
  Aragonite        -0.14     -8.48   -8.34  CaCO3
  Arcanite         -7.83     -9.71   -1.88  K2SO4
  Calcite           0.00     -8.48   -8.48  CaCO3
  CH4(g)          -20.98    -23.78   -2.80  CH4
  CO2(g)           -1.99     -3.46   -1.47  CO2
  Dolomite          0.20    -16.88  -17.08  CaMg(CO3)2
  Epsomite         -2.77     -4.51   -1.74  MgSO4:7H2O
  Fe(OH)3          -0.00      4.89    4.89  Fe(OH)3
  Fe(OH)3(a)       -0.00      4.89    4.89  Fe(OH)3
  FeS(ppt)        -11.06    -14.97   -3.92  FeS
  Gibbsite          2.69     10.80    8.11  Al(OH)3
  Goethite          5.89      4.89   -1.00  FeOOH
  Gypsum            0.00     -4.58   -4.58  CaSO4:2H2O
  H2(g)           -11.23    -14.33   -3.10  H2
  H2O(g)           -1.50     -0.00    1.50  H2O
  H2S(g)          -19.36    -27.30   -7.94  H2S
  Halite           -6.02     -4.45    1.57  NaCl
  Hausmannite     -19.19     41.84   61.03  Mn3O4
  Hematite         13.79      9.79   -4.01  Fe2O3
  Hexahydrite      -2.94     -4.51   -1.57  MgSO4:6H2O
  Jarosite-K       -5.34    -14.55   -9.21  KFe3(SO4)2(OH)6
  Kieserite        -3.34     -4.50   -1.16  MgSO4:H2O
  Mackinawite     -10.33    -14.97   -4.65  FeS
  Manganite        -9.53     15.81   25.34  MnOOH
  Melanterite      -1.72     -3.93   -2.21  FeSO4:7H2O
  Mirabilite       -5.13     -6.37   -1.24  Na2SO4:10H2O
  MnO2            -19.98     21.40   41.38  MnO2
  O2(g)           -60.83    -63.73   -2.89  O2
  Pyrite          -12.62    -31.10  -18.48  FeS2
  Pyrochroite      -4.98     10.22   15.20  Mn(OH)2
  Pyrolusite      -19.98     21.40   41.38  MnO2:H2O
  Rhodochrosite     1.21     -9.92  -11.13  MnCO3
  Siderite          3.07     -7.82  -10.89  FeCO3
  Smithsonite      -4.03    -14.03  -10.00  ZnCO3
  Sphalerite       -9.57    -21.19  -11.62  ZnS
  Sulfur          -14.06     -9.18    4.88  S
  Sylvite          -7.03     -6.13    0.90  KCl
  Thenardite       -6.06     -6.36   -0.30  Na2SO4
  Zn(OH)2(e)       -5.39      6.11   11.50  Zn(OH)2

**For a gas, SI = log10(fugacity). Fugacity = pressure * phi / 1 atm.
  For ideal gases, phi = 1.

------------------
End of simulation.
------------------

------------------------------------
Reading input data for simulation 2.
------------------------------------

