WARNING: Database file from DATABASE keyword is used; command line argument ignored.
   Input file: transport.dl
  Output file: transport.dl.out
Database file: ../database/phreeqc.dat

------------------
Reading data base.
------------------

	SOLUTION_MASTER_SPECIES
	SOLUTION_SPECIES
	PHASES
	GAS_BINARY_PARAMETERS
	EXCHANGE_MASTER_SPECIES
	EXCHANGE_SPECIES
	SURFACE_MASTER_SPECIES
	SURFACE_SPECIES
	MEAN_GAMMAS
	RATES
	END
------------------------------------
Reading input data for simulation 1.
------------------------------------

	DATABASE ../database/phreeqc.dat
	SELECTED_OUTPUT 101
	    file                 transport.dl_101.sel
	USER_PUNCH 101
	    headings Mu SC
	    start
	10 PUNCH STR_F$(MU, 20, 12)
	20 PUNCH STR_F$(SC, 20, 10)
	    end
	knobs
		logfile
	PRINT
		status false
	SOLUTION 0
		ph	3.3
		temp	25
		units mmol/l
		Ca	11.6
		Mg	15.8
		Na	9.4
		K	0.2
		Fe	52.4
		Mn	1.34
		Al	10.5
		Cu	2.4
		Zn	0.33
		S(6)	100 	charge
		Cl	9.5
		C(4)	0.1	CO2(g)  -3.5
	SOLUTION 1-5
		ph	7.19
		temp	25
		units mmol/l
		O(0)	0.22
		Ca	1.2	charge
		Mg	0.37
		Na	0.96
		K	0.03
		Fe	3.5e-7	mol/l
		Mn	1.0e-7	mol/l
		Al	1.8e-6  mol/l
		Cu	1.5e-7	mol/l
		Zn	2.5e-7	mol/l
		S(6)	0.7
		Cl	0.48
		Alkalinity	2.3
	SURFACE 1-5
		diffuse_layer  1e-9  # takes 10 time longer, calculates diffuse layer composition
		SurfOH	0.15	600.	65.
	PURE_PHASES 1-5
		MnO2		0.0	0.045
		Fe(OH)3		0.0	0.73
		Calcite		0.0	0.14
		Gypsum 		0.0	0.0
		Al(OH)3(a)	0.0	0.0
		AlOHSO4		0.0	0.0
	USE PURE_PHASES none
	USE SURFACE none
	ADVECTION
		cells 		5
		shifts		25
		print_frequency	5
	SURFACE_MASTER_SPECIES
		Surf	SurfOH
	SURFACE_SPECIES
		SurfOH = SurfOH
		log_k	0.0
		SurfOH  + H+ = SurfOH2+
		log_k	7.29
		SurfOH = SurfO- + H+
		log_k	-8.93
		SurfOH + Cu+2 = SurfOCu+ + H+
		log_k	0.6
		SurfOH + Zn+2 = SurfOZn+ + H+
		log_k	-1.99
		SurfOH + Mn+2 = SurfOMn+ + H+
		log_k	-2.6
	PHASES
		Fe(OH)3
		Fe(OH)3 + 3 H+ = Fe+3 + 3 H2O                                                 
		log_k	4.891
		MnO2
		MnO2 + 4 H+ + 2 e- = Mn+2 + 2 H2O                                          
		log_k		41.380
		delta_h	-65.110 kcal
		Al(OH)3(a)
		Al(OH)3 + 3H+ = Al+3 + 3H2O 
		log_k		10.8
		delta_h	-26.5 kcal
		AlOHSO4
		AlOHSO4 + H+ = Al+3 + SO4-2 + H2O 
		log_k	-2.2
	END
-------------------------------------------
Beginning of initial solution calculations.
-------------------------------------------

Initial solution 0.	

-----------------------------Solution composition------------------------------

	Elements           Molality       Moles

	Al                1.065e-02   1.065e-02
	C(4)              1.045e-05   1.045e-05  Equilibrium with CO2(g)
	Ca                1.177e-02   1.177e-02
	Cl                9.640e-03   9.640e-03
	Cu                2.435e-03   2.435e-03
	Fe                5.317e-02   5.317e-02
	K                 2.029e-04   2.029e-04
	Mg                1.603e-02   1.603e-02
	Mn                1.360e-03   1.360e-03
	Na                9.538e-03   9.538e-03
	S(6)              1.018e-01   1.018e-01  Charge balance
	Zn                3.348e-04   3.348e-04

----------------------------Description of solution----------------------------

                                       pH  =   3.300    
                                       pe  =   4.000    
      Specific Conductance (µS/cm,  25°C)  = 11000
                          Density (g/cm³)  =   1.01096
                               Volume (L)  =   1.00371
                        Viscosity (mPa s)  =   0.91149
                        Activity of water  =   0.997
                 Ionic strength (mol/kgw)  =   2.126e-01
                       Mass of water (kg)  =   1.000e+00
                 Total alkalinity (eq/kg)  =  -1.663e-03
                       Total CO2 (mol/kg)  =   1.045e-05
                         Temperature (°C)  =  25.00
                  Electrical balance (eq)  =   9.092e-15
 Percent error, 100*(Cat-|An|)/(Cat+|An|)  =   0.00
                               Iterations  =   9
                                  Total H  = 1.110141e+02
                                  Total O  = 5.591339e+01

----------------------------Distribution of species----------------------------

                                               Log       Log       Log    mole V
   Species          Molality    Activity  Molality  Activity     Gamma   cm³/mol

   H+              6.302e-04   5.012e-04    -3.200    -3.300    -0.100      0.00
   OH-             2.869e-11   2.014e-11   -10.542   -10.696    -0.154     -3.47
   H2O             5.551e+01   9.972e-01     1.744    -0.001     0.000     18.07
Al            1.065e-02
   AlSO4+          6.789e-03   4.920e-03    -2.168    -2.308    -0.140     (0)  
   Al(SO4)2-       2.974e-03   2.155e-03    -2.527    -2.666    -0.140     (0)  
   Al+3            8.830e-04   1.123e-04    -3.054    -3.950    -0.896    -40.80
   AlOH+2          7.306e-06   2.219e-06    -5.136    -5.654    -0.517    -26.92
   AlHSO4+2        7.135e-07   2.186e-07    -6.147    -6.660    -0.514     (0)  
   Al(OH)2+        4.662e-08   3.461e-08    -7.331    -7.461    -0.129     (0)  
   Al(OH)3         9.662e-12   1.015e-11   -11.015   -10.994     0.021     (0)  
   Al(OH)4-        5.250e-14   3.805e-14   -13.280   -13.420    -0.140     (0)  
C(4)          1.045e-05
   CO2             1.042e-05   1.076e-05    -4.982    -4.968     0.014     34.43
   HCO3-           1.283e-08   9.523e-09    -7.892    -8.021    -0.129     25.16
   FeHCO3+         1.242e-08   9.241e-09    -7.906    -8.034    -0.128     (0)  
   CuHCO3+         2.283e-09   1.698e-09    -8.642    -8.770    -0.128     (0)  
   MnHCO3+         4.465e-10   3.281e-10    -9.350    -9.484    -0.134     (0)  
   MgHCO3+         3.731e-10   2.663e-10    -9.428    -9.575    -0.146      5.72
   CaHCO3+         1.133e-10   8.535e-11    -9.946   -10.069    -0.123      9.88
   ZnHCO3+         9.187e-11   6.835e-11   -10.037   -10.165    -0.128     (0)  
   NaHCO3          4.760e-11   5.249e-11   -10.322   -10.280     0.043     31.73
   (CO2)2          2.024e-12   2.125e-12   -11.694   -11.673     0.021     68.87
   CuCO3           1.621e-12   1.703e-12   -11.790   -11.769     0.021     (0)  
   KHCO3           5.136e-13   5.160e-13   -12.289   -12.287     0.002     41.03
   FeCO3           1.975e-13   2.074e-13   -12.704   -12.683     0.021     (0)  
   MnCO3           2.606e-14   2.736e-14   -13.584   -13.563     0.021     (0)  
   ZnCO3           9.652e-15   1.014e-14   -14.015   -13.994     0.021     (0)  
   CaCO3           3.312e-15   3.478e-15   -14.480   -14.459     0.021    -14.60
   CO3-2           2.933e-15   8.910e-16   -14.533   -15.050    -0.517     -2.16
   MgCO3           1.935e-15   2.032e-15   -14.713   -14.692     0.021    -17.09
   Cu(CO3)2-2      6.234e-24   1.910e-24   -23.205   -23.719    -0.514     (0)  
   Zn(CO3)2-2      6.302e-25   1.931e-25   -24.201   -24.714    -0.514     (0)  
Ca            1.177e-02
   Ca+2            7.351e-03   2.324e-03    -2.134    -2.634    -0.500    -17.19
   CaSO4           4.394e-03   4.490e-03    -2.357    -2.348     0.009      7.22
   CaHSO4+         2.535e-05   1.886e-05    -4.596    -4.724    -0.128     (0)  
   CaHCO3+         1.133e-10   8.535e-11    -9.946   -10.069    -0.123      9.88
   CaOH+           1.031e-12   7.673e-13   -11.987   -12.115    -0.128     (0)  
   CaCO3           3.312e-15   3.478e-15   -14.480   -14.459     0.021    -14.60
Cl            9.640e-03
   Cl-             8.827e-03   6.276e-03    -2.054    -2.202    -0.148     18.47
   CuCl2-          3.259e-04   2.326e-04    -3.487    -3.633    -0.146     (0)  
   FeCl+           1.130e-04   8.407e-05    -3.947    -4.075    -0.128     (0)  
   MnCl+           1.345e-05   9.884e-06    -4.871    -5.005    -0.134     -2.87
   CuCl+           8.421e-06   6.011e-06    -5.075    -5.221    -0.146      1.16
   CuCl3-2         7.936e-06   2.314e-06    -5.100    -5.636    -0.535     (0)  
   ZnCl+           1.349e-06   9.631e-07    -5.870    -6.016    -0.146    -14.41
   HCl             8.798e-07   1.084e-06    -6.056    -5.965     0.090     (0)  
   MnCl2           2.578e-08   2.708e-08    -7.589    -7.567     0.021     85.89
   CuCl2           1.929e-08   2.026e-08    -7.715    -7.693     0.021     31.02
   ZnCl2           6.027e-09   6.329e-09    -8.220    -8.199     0.021    102.03
   MnCl3-          6.370e-11   4.681e-11   -10.196   -10.330    -0.134     44.29
   ZnCl3-          6.244e-11   4.457e-11   -10.205   -10.351    -0.146     15.74
   ZnOHCl          2.245e-11   2.357e-11   -10.649   -10.628     0.021     (0)  
   FeCl+2          6.025e-12   1.757e-12   -11.220   -11.755    -0.535     (0)  
   CuCl3-          6.320e-13   4.511e-13   -12.199   -12.346    -0.146     (0)  
   ZnCl4-2         4.808e-13   1.402e-13   -12.318   -12.853    -0.535    147.47
   FeCl2+          6.701e-14   4.924e-14   -13.174   -13.308    -0.134     (0)  
   CuCl4-2         4.867e-17   1.419e-17   -16.313   -16.848    -0.535     (0)  
   FeCl3           2.943e-17   3.090e-17   -16.531   -16.510     0.021     (0)  
Cu(1)         3.615e-04
   CuCl2-          3.259e-04   2.326e-04    -3.487    -3.633    -0.146     (0)  
   Cu+             2.766e-05   1.868e-05    -4.558    -4.729    -0.171     (0)  
   CuCl3-2         7.936e-06   2.314e-06    -5.100    -5.636    -0.535     (0)  
Cu(2)         2.074e-03
   Cu+2            1.107e-03   3.558e-04    -2.956    -3.449    -0.493    -25.74
   CuSO4           9.585e-04   1.007e-03    -3.018    -2.997     0.021     13.09
   CuCl+           8.421e-06   6.011e-06    -5.075    -5.221    -0.146      1.16
   CuCl2           1.929e-08   2.026e-08    -7.715    -7.693     0.021     31.02
   CuOH+           9.920e-09   7.080e-09    -8.004    -8.150    -0.146     (0)  
   CuHCO3+         2.283e-09   1.698e-09    -8.642    -8.770    -0.128     (0)  
   Cu2(OH)2+2      7.159e-11   2.194e-11   -10.145   -10.659    -0.514     (0)  
   Cu(OH)2         2.803e-11   2.943e-11   -10.552   -10.531     0.021     (0)  
   CuCO3           1.621e-12   1.703e-12   -11.790   -11.769     0.021     (0)  
   CuCl3-          6.320e-13   4.511e-13   -12.199   -12.346    -0.146     (0)  
   CuCl4-2         4.867e-17   1.419e-17   -16.313   -16.848    -0.535     (0)  
   Cu(OH)3-        4.743e-21   3.529e-21   -20.324   -20.452    -0.128     (0)  
   Cu(CO3)2-2      6.234e-24   1.910e-24   -23.205   -23.719    -0.514     (0)  
   Cu(OH)4-2       4.572e-30   1.401e-30   -29.340   -29.854    -0.514     (0)  
Fe(2)         5.317e-02
   Fe+2            3.018e-02   9.704e-03    -1.520    -2.013    -0.493    -21.23
   FeSO4           2.277e-02   2.391e-02    -1.643    -1.621     0.021     30.28
   FeCl+           1.130e-04   8.407e-05    -3.947    -4.075    -0.128     (0)  
   FeHSO4+         1.059e-04   7.877e-05    -3.975    -4.104    -0.128     (0)  
   FeHCO3+         1.242e-08   9.241e-09    -7.906    -8.034    -0.128     (0)  
   FeOH+           8.310e-09   6.106e-09    -8.080    -8.214    -0.134     (0)  
   FeCO3           1.975e-13   2.074e-13   -12.704   -12.683     0.021     (0)  
   Fe(OH)2         9.847e-17   1.034e-16   -16.007   -15.985     0.021     (0)  
   Fe(OH)3-        1.040e-23   7.644e-24   -22.983   -23.117    -0.134     (0)  
Fe(3)         3.089e-09
   FeSO4+          1.916e-09   1.408e-09    -8.718    -8.851    -0.134     (0)  
   Fe(SO4)2-       5.736e-10   4.267e-10    -9.241    -9.370    -0.128     (0)  
   FeOH+2          4.084e-10   1.191e-10    -9.389    -9.924    -0.535     (0)  
   Fe(OH)2+        1.057e-10   7.844e-11    -9.976   -10.105    -0.129     (0)  
   Fe+3            7.288e-11   9.268e-12   -10.137   -11.033    -0.896     (0)  
   FeHSO4+2        6.166e-12   1.889e-12   -11.210   -11.724    -0.514     (0)  
   FeCl+2          6.025e-12   1.757e-12   -11.220   -11.755    -0.535     (0)  
   FeCl2+          6.701e-14   4.924e-14   -13.174   -13.308    -0.134     (0)  
   Fe(OH)3         1.915e-14   2.011e-14   -13.718   -13.697     0.021     (0)  
   Fe2(OH)2+4      4.328e-17   3.815e-19   -16.364   -18.418    -2.055     (0)  
   FeCl3           2.943e-17   3.090e-17   -16.531   -16.510     0.021     (0)  
   Fe(OH)4-        4.914e-20   3.648e-20   -19.309   -19.438    -0.129     (0)  
   Fe3(OH)4+5      1.015e-23   6.253e-27   -22.993   -26.204    -3.211     (0)  
H(0)          3.387e-18
   H2              1.693e-18   1.778e-18   -17.771   -17.750     0.021     28.61
K             2.029e-04
   K+              1.716e-04   1.213e-04    -3.766    -3.916    -0.151      9.35
   KSO4-           3.139e-05   2.557e-05    -4.503    -4.592    -0.089     28.86
   KHCO3           5.136e-13   5.160e-13   -12.289   -12.287     0.002     41.03
Mg            1.603e-02
   MgSO4           7.862e-03   8.670e-03    -2.104    -2.062     0.043     -0.40
   Mg+2            7.064e-03   2.390e-03    -2.151    -2.622    -0.471    -20.90
   Mg(SO4)2-2      1.106e-03   3.957e-04    -2.956    -3.403    -0.447     45.25
   MgHCO3+         3.731e-10   2.663e-10    -9.428    -9.575    -0.146      5.72
   MgOH+           2.268e-11   1.727e-11   -10.644   -10.763    -0.118     (0)  
   MgCO3           1.935e-15   2.032e-15   -14.713   -14.692     0.021    -17.09
Mn(2)         1.360e-03
   Mn+2            1.202e-03   3.866e-04    -2.920    -3.413    -0.493    -17.49
   MnSO4           1.438e-04   1.370e-04    -3.842    -3.863    -0.021     17.15
   MnCl+           1.345e-05   9.884e-06    -4.871    -5.005    -0.134     -2.87
   MnCl2           2.578e-08   2.708e-08    -7.589    -7.567     0.021     85.89
   MnHCO3+         4.465e-10   3.281e-10    -9.350    -9.484    -0.134     (0)  
   MnCl3-          6.370e-11   4.681e-11   -10.196   -10.330    -0.134     44.29
   MnOH+           2.691e-11   1.977e-11   -10.570   -10.704    -0.134     (0)  
   MnCO3           2.606e-14   2.736e-14   -13.584   -13.563     0.021     (0)  
   Mn(OH)3-        6.568e-29   4.826e-29   -28.183   -28.316    -0.134     (0)  
Mn(3)         9.394e-25
   Mn+3            9.394e-25   1.195e-25   -24.027   -24.923    -0.896     (0)  
Na            9.538e-03
   Na+             8.497e-03   6.329e-03    -2.071    -2.199    -0.128     -0.92
   NaSO4-          1.041e-03   7.703e-04    -2.982    -3.113    -0.131     19.27
   Na2SO4          2.276e-09   2.377e-09    -8.643    -8.624     0.019     47.96
   NaHCO3          4.760e-11   5.249e-11   -10.322   -10.280     0.043     31.73
O(0)          0.000e+00
   O2              0.000e+00   0.000e+00   -56.886   -56.865     0.021     30.40
S(6)          1.018e-01
   SO4-2           4.846e-02   1.385e-02    -1.315    -1.858    -0.544     15.59
   FeSO4           2.277e-02   2.391e-02    -1.643    -1.621     0.021     30.28
   MgSO4           7.862e-03   8.670e-03    -2.104    -2.062     0.043     -0.40
   AlSO4+          6.789e-03   4.920e-03    -2.168    -2.308    -0.140     (0)  
   CaSO4           4.394e-03   4.490e-03    -2.357    -2.348     0.009      7.22
   Al(SO4)2-       2.974e-03   2.155e-03    -2.527    -2.666    -0.140     (0)  
   Mg(SO4)2-2      1.106e-03   3.957e-04    -2.956    -3.403    -0.447     45.25
   NaSO4-          1.041e-03   7.703e-04    -2.982    -3.113    -0.131     19.27
   CuSO4           9.585e-04   1.007e-03    -3.018    -2.997     0.021     13.09
   HSO4-           9.074e-04   6.751e-04    -3.042    -3.171    -0.128     40.66
   MnSO4           1.438e-04   1.370e-04    -3.842    -3.863    -0.021     17.15
   ZnSO4           1.369e-04   1.437e-04    -3.864    -3.842     0.021      6.48
   FeHSO4+         1.059e-04   7.877e-05    -3.975    -4.104    -0.128     (0)  
   KSO4-           3.139e-05   2.557e-05    -4.503    -4.592    -0.089     28.86
   CaHSO4+         2.535e-05   1.886e-05    -4.596    -4.724    -0.128     (0)  
   Zn(SO4)2-2      1.075e-06   1.546e-07    -5.969    -6.811    -0.842     45.30
   AlHSO4+2        7.135e-07   2.186e-07    -6.147    -6.660    -0.514     (0)  
   Na2SO4          2.276e-09   2.377e-09    -8.643    -8.624     0.019     47.96
   FeSO4+          1.916e-09   1.408e-09    -8.718    -8.851    -0.134     (0)  
   Fe(SO4)2-       5.736e-10   4.267e-10    -9.241    -9.370    -0.128     (0)  
   FeHSO4+2        6.166e-12   1.889e-12   -11.210   -11.724    -0.514     (0)  
Zn            3.348e-04
   Zn+2            1.955e-04   5.701e-05    -3.709    -4.244    -0.535    -24.47
   ZnSO4           1.369e-04   1.437e-04    -3.864    -3.842     0.021      6.48
   ZnCl+           1.349e-06   9.631e-07    -5.870    -6.016    -0.146    -14.41
   Zn(SO4)2-2      1.075e-06   1.546e-07    -5.969    -6.811    -0.842     45.30
   ZnCl2           6.027e-09   6.329e-09    -8.220    -8.199     0.021    102.03
   ZnOH+           1.672e-10   1.244e-10    -9.777    -9.905    -0.128     (0)  
   ZnHCO3+         9.187e-11   6.835e-11   -10.037   -10.165    -0.128     (0)  
   ZnCl3-          6.244e-11   4.457e-11   -10.205   -10.351    -0.146     15.74
   ZnOHCl          2.245e-11   2.357e-11   -10.649   -10.628     0.021     (0)  
   ZnCl4-2         4.808e-13   1.402e-13   -12.318   -12.853    -0.535    147.47
   ZnCO3           9.652e-15   1.014e-14   -14.015   -13.994     0.021     (0)  
   Zn(OH)2         2.706e-15   2.841e-15   -14.568   -14.546     0.021     (0)  
   Zn(OH)3-        2.403e-23   1.788e-23   -22.619   -22.748    -0.128     (0)  
   Zn(CO3)2-2      6.302e-25   1.931e-25   -24.201   -24.714    -0.514     (0)  
   Zn(OH)4-2       1.840e-32   5.638e-33   -31.735   -32.249    -0.514     (0)  

------------------------------Saturation indices-------------------------------

  Phase               SI** log IAP   log K(298 K,   1 atm)

  Al(OH)3(a)       -4.85      5.95   10.80  Al(OH)3
  AlOHSO4          -0.31     -2.51   -2.20  AlOHSO4
  Alunite           1.71      0.31   -1.40  KAl3(SO4)2(OH)6
  Anhydrite        -0.18     -4.49   -4.31  CaSO4
  Aragonite        -9.35    -17.68   -8.34  CaCO3
  Arcanite         -7.81     -9.69   -1.88  K2SO4
  Calcite          -9.20    -17.68   -8.48  CaCO3
  CO2(g)           -3.50     -4.97   -1.47  CO2	 Pressure   0.0 atm, phi 1.000
  Dolomite        -18.27    -35.36  -17.08  CaMg(CO3)2
  Epsomite         -2.75     -4.49   -1.74  MgSO4:7H2O
  Fe(OH)3          -6.03     -1.14    4.89  Fe(OH)3
  Fe(OH)3(a)       -6.03     -1.14    4.89  Fe(OH)3
  Gibbsite         -2.16      5.95    8.11  Al(OH)3
  Goethite         -0.14     -1.14   -1.00  FeOOH
  Gypsum            0.05     -4.49   -4.55  CaSO4:2H2O
  H2(g)           -14.65    -17.75   -3.10  H2
  H2O(g)           -1.50     -0.00    1.50  H2O
  Halite           -5.97     -4.40    1.57  NaCl
  Hausmannite     -36.87     24.16   61.03  Mn3O4
  Hematite          1.74     -2.27   -4.01  Fe2O3
  Hexahydrite      -2.92     -4.49   -1.57  MgSO4:6H2O
  Jarosite-K      -11.73    -20.94   -9.21  KFe3(SO4)2(OH)6
  Kieserite        -3.32     -4.48   -1.16  MgSO4:H2O
  Manganite       -14.86     10.48   25.34  MnOOH
  Melanterite      -1.67     -3.88   -2.21  FeSO4:7H2O
  Mirabilite       -5.56     -6.27   -0.71  Na2SO4:10H2O
  MnO2            -23.60     17.78   41.38  MnO2
  O2(g)           -53.97    -56.86   -2.89  O2
  Pyrochroite     -12.02      3.18   15.20  Mn(OH)2
  Pyrolusite      -23.60     17.78   41.38  MnO2:H2O
  Rhodochrosite    -7.33    -18.46  -11.13  MnCO3
  Siderite         -6.17    -17.06  -10.89  FeCO3
  Smithsonite      -9.29    -19.29  -10.00  ZnCO3
  Sylvite          -7.02     -6.12    0.90  KCl
  Thenardite       -6.91     -6.26    0.65  Na2SO4
  Zn(OH)2(e)       -9.15      2.35   11.50  Zn(OH)2

**For a gas, SI = log10(fugacity). Fugacity = pressure * phi / 1 atm.
  For ideal gases, phi = 1.

Initial solution 1.	

-----------------------------Solution composition------------------------------

	Elements           Molality       Moles

	Al                1.801e-06   1.801e-06
	Alkalinity        2.301e-03   2.301e-03
	Ca                1.222e-03   1.222e-03  Charge balance
	Cl                4.801e-04   4.801e-04
	Cu                1.500e-07   1.500e-07
	Fe                3.501e-07   3.501e-07
	K                 3.001e-05   3.001e-05
	Mg                3.701e-04   3.701e-04
	Mn                1.000e-07   1.000e-07
	Na                9.603e-04   9.603e-04
	O(0)              2.201e-04   2.201e-04
	S(6)              7.002e-04   7.002e-04
	Zn                2.501e-07   2.501e-07

----------------------------Description of solution----------------------------

                                       pH  =   7.190    
                                       pe  =   4.000    
      Specific Conductance (µS/cm,  25°C)  = 442
                          Density (g/cm³)  =   0.99731
                               Volume (L)  =   1.00302
                        Viscosity (mPa s)  =   0.89333
                        Activity of water  =   1.000
                 Ionic strength (mol/kgw)  =   6.104e-03
                       Mass of water (kg)  =   1.000e+00
                    Total carbon (mol/kg)  =   2.592e-03
                       Total CO2 (mol/kg)  =   2.592e-03
                         Temperature (°C)  =  25.00
                  Electrical balance (eq)  =   1.101e-17
 Percent error, 100*(Cat-|An|)/(Cat+|An|)  =   0.00
                               Iterations  =  11 (20 overall)
                                  Total H  = 1.110147e+02
                                  Total O  = 5.551672e+01

---------------------------------Redox couples---------------------------------

	Redox couple             pe  Eh (volts)

	O(-2)/O(0)          13.3362      0.7889

----------------------------Distribution of species----------------------------

                                               Log       Log       Log    mole V
   Species          Molality    Activity  Molality  Activity     Gamma   cm³/mol

   OH-             1.705e-07   1.567e-07    -6.768    -6.805    -0.037     -4.06
   H+              6.956e-08   6.457e-08    -7.158    -7.190    -0.032      0.00
   H2O             5.551e+01   9.999e-01     1.744    -0.000     0.000     18.07
Al            1.801e-06
   Al(OH)4-        1.720e-06   1.584e-06    -5.764    -5.800    -0.036     (0)  
   Al(OH)3         5.421e-08   5.428e-08    -7.266    -7.265     0.001     (0)  
   Al(OH)2+        2.579e-08   2.379e-08    -7.589    -7.624    -0.035     (0)  
   AlOH+2          2.705e-10   1.960e-10    -9.568    -9.708    -0.140    -27.62
   Al+3            2.492e-12   1.274e-12   -11.603   -11.895    -0.291    -41.99
   AlSO4+          1.945e-12   1.791e-12   -11.711   -11.747    -0.036     (0)  
   Al(SO4)2-       2.734e-14   2.518e-14   -13.563   -13.599    -0.036     (0)  
   AlHSO4+2        1.429e-20   1.025e-20   -19.845   -19.989    -0.144     (0)  
C(4)          2.592e-03
   HCO3-           2.268e-03   2.093e-03    -2.644    -2.679    -0.035     24.62
   CO2             3.035e-04   3.038e-04    -3.518    -3.517     0.000     34.43
   CaHCO3+         7.342e-06   6.781e-06    -5.134    -5.169    -0.035      9.71
   MgHCO3+         6.480e-06   5.962e-06    -5.188    -5.225    -0.036      5.51
   CaCO3           2.142e-06   2.145e-06    -5.669    -5.669     0.001    -14.60
   CO3-2           2.098e-06   1.520e-06    -5.678    -5.818    -0.140     -3.75
   NaHCO3          1.599e-06   1.604e-06    -5.796    -5.795     0.001     31.73
   MgCO3           3.527e-07   3.532e-07    -6.453    -6.452     0.001    -17.09
   CuCO3           7.638e-08   7.649e-08    -7.117    -7.116     0.001     (0)  
   ZnCO3           3.622e-08   3.627e-08    -7.441    -7.440     0.001     (0)  
   ZnHCO3+         3.423e-08   3.151e-08    -7.466    -7.502    -0.036     (0)  
   KHCO3           2.559e-08   2.560e-08    -7.592    -7.592     0.000     41.03
   FeHCO3+         2.453e-08   2.258e-08    -7.610    -7.646    -0.036     (0)  
   MnHCO3+         1.183e-08   1.090e-08    -7.927    -7.962    -0.035     (0)  
   CuHCO3+         1.068e-08   9.828e-09    -7.972    -8.008    -0.036     (0)  
   MnCO3           7.048e-09   7.058e-09    -8.152    -8.151     0.001     (0)  
   FeCO3           3.929e-09   3.934e-09    -8.406    -8.405     0.001     (0)  
   (CO2)2          1.692e-09   1.694e-09    -8.772    -8.771     0.001     68.87
   Zn(CO3)2-2      1.642e-09   1.179e-09    -8.785    -8.929    -0.144     (0)  
   Cu(CO3)2-2      2.040e-10   1.464e-10    -9.690    -9.835    -0.144     (0)  
Ca            1.222e-03
   Ca+2            1.160e-03   8.401e-04    -2.935    -3.076    -0.140    -17.99
   CaSO4           5.206e-05   5.210e-05    -4.283    -4.283     0.000      7.22
   CaHCO3+         7.342e-06   6.781e-06    -5.134    -5.169    -0.035      9.71
   CaCO3           2.142e-06   2.145e-06    -5.669    -5.669     0.001    -14.60
   CaOH+           2.346e-09   2.159e-09    -8.630    -8.666    -0.036     (0)  
   CaHSO4+         3.062e-11   2.819e-11   -10.514   -10.550    -0.036     (0)  
Cl            4.801e-04
   Cl-             4.801e-04   4.416e-04    -3.319    -3.355    -0.036     18.12
   ZnCl+           1.545e-10   1.421e-10    -9.811    -9.847    -0.036    -13.88
   MnCl+           1.141e-10   1.052e-10    -9.943    -9.978    -0.035     -3.05
   FeCl+           7.146e-11   6.577e-11   -10.146   -10.182    -0.036     (0)  
   CuCl2-          3.296e-11   3.032e-11   -10.482   -10.518    -0.036     (0)  
   ZnOHCl          2.704e-11   2.708e-11   -10.568   -10.567     0.001     (0)  
   CuCl+           1.210e-11   1.114e-11   -10.917   -10.953    -0.036      0.68
   HCl             9.763e-12   9.822e-12   -11.010   -11.008     0.003     (0)  
   ZnCl2           6.563e-14   6.573e-14   -13.183   -13.182     0.001    102.03
   CuCl3-2         2.938e-14   2.122e-14   -13.532   -13.673    -0.141     (0)  
   MnCl2           2.024e-14   2.027e-14   -13.694   -13.693     0.001     85.89
   CuCl2           2.637e-15   2.641e-15   -14.579   -14.578     0.001     31.02
   ZnCl3-          3.539e-17   3.257e-17   -16.451   -16.487    -0.036     16.98
   MnCl3-          2.674e-18   2.466e-18   -17.573   -17.608    -0.035     43.40
   FeCl+2          1.902e-18   1.374e-18   -17.721   -17.862    -0.141     (0)  
   ZnCl4-2         9.978e-21   7.207e-21   -20.001   -20.142    -0.141    145.36
   CuCl3-          4.497e-21   4.138e-21   -20.347   -20.383    -0.036     (0)  
   FeCl2+          2.940e-21   2.711e-21   -20.532   -20.567    -0.035     (0)  
   FeCl3           1.195e-25   1.197e-25   -24.923   -24.922     0.001     (0)  
   CuCl4-2         1.268e-26   9.159e-27   -25.897   -26.038    -0.141     (0)  
Cu(1)         5.690e-10
   Cu+             5.361e-10   4.918e-10    -9.271    -9.308    -0.037     (0)  
   CuCl2-          3.296e-11   3.032e-11   -10.482   -10.518    -0.036     (0)  
   CuCl3-2         2.938e-14   2.122e-14   -13.532   -13.673    -0.141     (0)  
Cu(2)         1.495e-07
   CuCO3           7.638e-08   7.649e-08    -7.117    -7.116     0.001     (0)  
   Cu(OH)2         4.689e-08   4.695e-08    -7.329    -7.328     0.001     (0)  
   Cu+2            1.288e-08   9.371e-09    -7.890    -8.028    -0.138    -26.46
   CuHCO3+         1.068e-08   9.828e-09    -7.972    -8.008    -0.036     (0)  
   CuOH+           1.577e-09   1.451e-09    -8.802    -8.838    -0.036     (0)  
   CuSO4           8.494e-10   8.506e-10    -9.071    -9.070     0.001     13.09
   Cu(CO3)2-2      2.040e-10   1.464e-10    -9.690    -9.835    -0.144     (0)  
   CuCl+           1.210e-11   1.114e-11   -10.917   -10.953    -0.036      0.68
   Cu2(OH)2+2      1.284e-12   9.215e-13   -11.891   -12.036    -0.144     (0)  
   Cu(OH)3-        4.760e-14   4.382e-14   -13.322   -13.358    -0.036     (0)  
   CuCl2           2.637e-15   2.641e-15   -14.579   -14.578     0.001     31.02
   Cu(OH)4-2       1.887e-19   1.354e-19   -18.724   -18.868    -0.144     (0)  
   CuCl3-          4.497e-21   4.138e-21   -20.347   -20.383    -0.036     (0)  
   CuCl4-2         1.268e-26   9.159e-27   -25.897   -26.038    -0.141     (0)  
Fe(2)         1.859e-07
   Fe+2            1.483e-07   1.079e-07    -6.829    -6.967    -0.138    -21.99
   FeHCO3+         2.453e-08   2.258e-08    -7.610    -7.646    -0.036     (0)  
   FeSO4           8.519e-09   8.531e-09    -8.070    -8.069     0.001     30.28
   FeCO3           3.929e-09   3.934e-09    -8.406    -8.405     0.001     (0)  
   FeOH+           5.732e-10   5.284e-10    -9.242    -9.277    -0.035     (0)  
   FeCl+           7.146e-11   6.577e-11   -10.146   -10.182    -0.036     (0)  
   Fe(OH)2         6.956e-14   6.965e-14   -13.158   -13.157     0.001     (0)  
   FeHSO4+         3.934e-15   3.620e-15   -14.405   -14.441    -0.036     (0)  
   Fe(OH)3-        4.347e-17   4.008e-17   -16.362   -16.397    -0.035     (0)  
Fe(3)         1.642e-07
   Fe(OH)3         1.053e-07   1.054e-07    -6.978    -6.977     0.001     (0)  
   Fe(OH)2+        5.727e-08   5.284e-08    -7.242    -7.277    -0.035     (0)  
   Fe(OH)4-        1.614e-09   1.489e-09    -8.792    -8.827    -0.035     (0)  
   FeOH+2          1.426e-11   1.030e-11   -10.846   -10.987    -0.141     (0)  
   FeSO4+          5.449e-16   5.023e-16   -15.264   -15.299    -0.035     (0)  
   Fe+3            2.015e-16   1.030e-16   -15.696   -15.987    -0.291     (0)  
   Fe(SO4)2-       5.308e-18   4.886e-18   -17.275   -17.311    -0.036     (0)  
   FeCl+2          1.902e-18   1.374e-18   -17.721   -17.862    -0.141     (0)  
   Fe2(OH)2+4      1.077e-20   2.858e-21   -19.968   -20.544    -0.576     (0)  
   FeCl2+          2.940e-21   2.711e-21   -20.532   -20.567    -0.035     (0)  
   FeHSO4+2        1.210e-22   8.685e-23   -21.917   -22.061    -0.144     (0)  
   Fe3(OH)4+5      2.509e-25   3.155e-26   -24.600   -25.501    -0.901     (0)  
   FeCl3           1.195e-25   1.197e-25   -24.923   -24.922     0.001     (0)  
H(0)          5.894e-26
   H2              2.947e-26   2.951e-26   -25.531   -25.530     0.001     28.61
K             3.001e-05
   K+              2.978e-05   2.738e-05    -4.526    -4.563    -0.036      9.05
   KSO4-           2.002e-07   1.852e-07    -6.698    -6.732    -0.034     20.00
   KHCO3           2.559e-08   2.560e-08    -7.592    -7.592     0.000     41.03
Mg            3.701e-04
   Mg+2            3.349e-04   2.435e-04    -3.475    -3.613    -0.138    -21.68
   MgSO4           2.826e-05   2.834e-05    -4.549    -4.548     0.001     -0.40
   MgHCO3+         6.480e-06   5.962e-06    -5.188    -5.225    -0.036      5.51
   MgCO3           3.527e-07   3.532e-07    -6.453    -6.452     0.001    -17.09
   Mg(SO4)2-2      5.661e-08   4.150e-08    -7.247    -7.382    -0.135     36.97
   MgOH+           1.481e-08   1.369e-08    -7.829    -7.864    -0.034     (0)  
Mn(2)         1.000e-07
   Mn+2            8.035e-08   5.846e-08    -7.095    -7.233    -0.138    -20.14
   MnHCO3+         1.183e-08   1.090e-08    -7.927    -7.962    -0.035     (0)  
   MnCO3           7.048e-09   7.058e-09    -8.152    -8.151     0.001     (0)  
   MnSO4           6.659e-10   6.650e-10    -9.177    -9.177    -0.001     17.15
   MnCl+           1.141e-10   1.052e-10    -9.943    -9.978    -0.035     -3.05
   MnOH+           2.524e-11   2.327e-11   -10.598   -10.633    -0.035     (0)  
   MnCl2           2.024e-14   2.027e-14   -13.694   -13.693     0.001     85.89
   MnCl3-          2.674e-18   2.466e-18   -17.573   -17.608    -0.035     43.40
   Mn(OH)3-        3.733e-21   3.441e-21   -20.428   -20.463    -0.035     (0)  
Mn(3)         3.533e-29
   Mn+3            3.533e-29   1.807e-29   -28.452   -28.743    -0.291     (0)  
Na            9.603e-04
   Na+             9.549e-04   8.798e-04    -3.020    -3.056    -0.036     -1.41
   NaSO4-          3.732e-06   3.436e-06    -5.428    -5.464    -0.036     16.86
   NaHCO3          1.599e-06   1.604e-06    -5.796    -5.795     0.001     31.73
   Na2SO4          1.472e-12   1.474e-12   -11.832   -11.831     0.001     47.96
O(0)          2.201e-04
   O2              1.100e-04   1.102e-04    -3.958    -3.958     0.001     30.40
S(6)          7.002e-04
   SO4-2           6.158e-04   4.446e-04    -3.211    -3.352    -0.142     14.64
   CaSO4           5.206e-05   5.210e-05    -4.283    -4.283     0.000      7.22
   MgSO4           2.826e-05   2.834e-05    -4.549    -4.548     0.001     -0.40
   NaSO4-          3.732e-06   3.436e-06    -5.428    -5.464    -0.036     16.86
   KSO4-           2.002e-07   1.852e-07    -6.698    -6.732    -0.034     20.00
   Mg(SO4)2-2      5.661e-08   4.150e-08    -7.247    -7.382    -0.135     36.97
   ZnSO4           9.661e-09   9.675e-09    -8.015    -8.014     0.001      6.48
   FeSO4           8.519e-09   8.531e-09    -8.070    -8.069     0.001     30.28
   HSO4-           3.032e-09   2.791e-09    -8.518    -8.554    -0.036     40.32
   CuSO4           8.494e-10   8.506e-10    -9.071    -9.070     0.001     13.09
   MnSO4           6.659e-10   6.650e-10    -9.177    -9.177    -0.001     17.15
   CaHSO4+         3.062e-11   2.819e-11   -10.514   -10.550    -0.036     (0)  
   AlSO4+          1.945e-12   1.791e-12   -11.711   -11.747    -0.036     (0)  
   Na2SO4          1.472e-12   1.474e-12   -11.832   -11.831     0.001     47.96
   Zn(SO4)2-2      4.786e-13   3.339e-13   -12.320   -12.476    -0.156     44.57
   Al(SO4)2-       2.734e-14   2.518e-14   -13.563   -13.599    -0.036     (0)  
   FeHSO4+         3.934e-15   3.620e-15   -14.405   -14.441    -0.036     (0)  
   FeSO4+          5.449e-16   5.023e-16   -15.264   -15.299    -0.035     (0)  
   Fe(SO4)2-       5.308e-18   4.886e-18   -17.275   -17.311    -0.036     (0)  
   AlHSO4+2        1.429e-20   1.025e-20   -19.845   -19.989    -0.144     (0)  
   FeHSO4+2        1.210e-22   8.685e-23   -21.917   -22.061    -0.144     (0)  
Zn            2.501e-07
   Zn+2            1.656e-07   1.196e-07    -6.781    -6.922    -0.141    -25.21
   ZnCO3           3.622e-08   3.627e-08    -7.441    -7.440     0.001     (0)  
   ZnHCO3+         3.423e-08   3.151e-08    -7.466    -7.502    -0.036     (0)  
   ZnSO4           9.661e-09   9.675e-09    -8.015    -8.014     0.001      6.48
   ZnOH+           2.206e-09   2.031e-09    -8.656    -8.692    -0.036     (0)  
   Zn(CO3)2-2      1.642e-09   1.179e-09    -8.785    -8.929    -0.144     (0)  
   Zn(OH)2         3.606e-10   3.611e-10    -9.443    -9.442     0.001     (0)  
   ZnCl+           1.545e-10   1.421e-10    -9.811    -9.847    -0.036    -13.88
   ZnOHCl          2.704e-11   2.708e-11   -10.568   -10.567     0.001     (0)  
   Zn(SO4)2-2      4.786e-13   3.339e-13   -12.320   -12.476    -0.156     44.57
   ZnCl2           6.563e-14   6.573e-14   -13.183   -13.182     0.001    102.03
   Zn(OH)3-        1.921e-14   1.768e-14   -13.716   -13.752    -0.036     (0)  
   ZnCl3-          3.539e-17   3.257e-17   -16.451   -16.487    -0.036     16.98
   Zn(OH)4-2       6.048e-20   4.340e-20   -19.218   -19.362    -0.144     (0)  
   ZnCl4-2         9.978e-21   7.207e-21   -20.001   -20.142    -0.141    145.36

------------------------------Saturation indices-------------------------------

  Phase               SI** log IAP   log K(298 K,   1 atm)

  Al(OH)3(a)       -1.12      9.68   10.80  Al(OH)3
  AlOHSO4          -5.86     -8.06   -2.20  AlOHSO4
  Alunite          -2.41     -3.81   -1.40  KAl3(SO4)2(OH)6
  Anhydrite        -2.11     -6.43   -4.31  CaSO4
  Aragonite        -0.56     -8.89   -8.34  CaCO3
  Arcanite        -10.60    -12.48   -1.88  K2SO4
  Calcite          -0.41     -8.89   -8.48  CaCO3
  CO2(g)           -2.05     -3.52   -1.47  CO2
  Dolomite         -1.24    -18.33  -17.08  CaMg(CO3)2
  Epsomite         -5.23     -6.97   -1.74  MgSO4:7H2O
  Fe(OH)3           0.69      5.58    4.89  Fe(OH)3
  Fe(OH)3(a)        0.69      5.58    4.89  Fe(OH)3
  Gibbsite          1.57      9.68    8.11  Al(OH)3
  Goethite          6.58      5.58   -1.00  FeOOH
  Gypsum           -1.88     -6.43   -4.55  CaSO4:2H2O
  H2(g)           -22.43    -25.53   -3.10  H2
  H2O(g)           -1.50     -0.00    1.50  H2O
  Halite           -7.98     -6.41    1.57  NaCl
  Hausmannite     -17.21     43.82   61.03  Mn3O4
  Hematite         15.17     11.17   -4.01  Fe2O3
  Hexahydrite      -5.40     -6.97   -1.57  MgSO4:6H2O
  Jarosite-K       -6.88    -16.09   -9.21  KFe3(SO4)2(OH)6
  Kieserite        -5.80     -6.97   -1.16  MgSO4:H2O
  Manganite        -7.00     18.34   25.34  MnOOH
  Melanterite      -8.11    -10.32   -2.21  FeSO4:7H2O
  Mirabilite       -8.76     -9.46   -0.71  Na2SO4:10H2O
  MnO2            -11.85     29.53   41.38  MnO2
  O2(g)            -1.07     -3.96   -2.89  O2
  Pyrochroite      -8.05      7.15   15.20  Mn(OH)2
  Pyrolusite      -11.85     29.53   41.38  MnO2:H2O
  Rhodochrosite    -1.92    -13.05  -11.13  MnCO3
  Siderite         -1.90    -12.79  -10.89  FeCO3
  Smithsonite      -2.74    -12.74  -10.00  ZnCO3
  Sylvite          -8.82     -7.92    0.90  KCl
  Thenardite      -10.11     -9.46    0.65  Na2SO4
  Zn(OH)2(e)       -4.04      7.46   11.50  Zn(OH)2

**For a gas, SI = log10(fugacity). Fugacity = pressure * phi / 1 atm.
  For ideal gases, phi = 1.

------------------------------------
Beginning of advection calculations.
------------------------------------

Beginning of advection time step 1, cumulative pore volumes 0.200000.
WARNING: Maximum iterations exceeded, 100

WARNING: Numerical method failed with this set of convergence parameters.

WARNING: Trying smaller step size, pe step size 10, 5 ... 

WARNING: Maximum iterations exceeded, 200

WARNING: Numerical method failed with this set of convergence parameters.

WARNING: Trying reduced tolerance 1e-16 ...

WARNING: Maximum iterations exceeded, 100

WARNING: Numerical method failed with this set of convergence parameters.

WARNING: Trying smaller step size, pe step size 10, 5 ... 

WARNING: Maximum iterations exceeded, 200

WARNING: Numerical method failed with this set of convergence parameters.

WARNING: Trying reduced tolerance 1e-16 ...

WARNING: Maximum iterations exceeded, 200

WARNING: Numerical method failed with this set of convergence parameters.

WARNING: Trying increased tolerance 1e-14 ...

WARNING: Maximum iterations exceeded, 200

WARNING: Numerical method failed with this set of convergence parameters.

WARNING: Trying diagonal scaling ...

WARNING: Maximum iterations exceeded, 100

WARNING: Numerical method failed with this set of convergence parameters.

WARNING: Trying smaller step size, pe step size 10, 5 ... 

WARNING: Maximum iterations exceeded, 200

WARNING: Numerical method failed with this set of convergence parameters.

WARNING: Trying reduced tolerance 1e-16 ...

WARNING: Maximum iterations exceeded, 100

WARNING: Numerical method failed with this set of convergence parameters.

WARNING: Trying smaller step size, pe step size 10, 5 ... 

WARNING: Maximum iterations exceeded, 200

WARNING: Numerical method failed with this set of convergence parameters.

WARNING: Trying reduced tolerance 1e-16 ...

Beginning of advection time step 2, cumulative pore volumes 0.400000.
Beginning of advection time step 3, cumulative pore volumes 0.600000.
Beginning of advection time step 4, cumulative pore volumes 0.800000.
Beginning of advection time step 5, cumulative pore volumes 1.000000.

Cell 1.

Using solution 1.	
Using surface 1.	
Using pure phase assemblage 1.	Pure-phase assemblage after simulation 1.

-------------------------------Phase assemblage--------------------------------

                                                      Moles in assemblage
Phase               SI  log IAP  log K(T, P)   Initial       Final       Delta

Al(OH)3(a)       -0.00    10.80     10.80    4.258e-02   5.317e-02   1.059e-02
AlOHSO4          -0.32    -2.52     -2.20    0.000e+00           0   0.000e+00
Calcite          -3.02   -11.50     -8.48    0.000e+00           0   0.000e+00
Fe(OH)3          -0.00     4.89      4.89    8.190e-01   8.187e-01  -3.230e-04
Gypsum            0.00    -4.55     -4.55    1.367e-01   1.383e-01   1.607e-03
MnO2            -15.49    25.89     41.38    0.000e+00           0   0.000e+00

------------------------------Surface composition------------------------------

Diffuse Double Layer Surface-Complexation Model

Surf          
	  1.158e-16  Surface + diffuse layer charge, eq
	  1.043e-01  Surface charge, eq
	  2.582e-01  sigma, C/m²
	  7.584e-02  psi, V
	 -2.952e+00  -F*psi/RT
	  5.223e-02  exp(-F*psi/RT)
	  6.000e+02  specific area, m²/g
	  3.900e+04  m² for   6.500e+01 g

	Water in diffuse layer: 3.900e-02 kg, 100.0% of total DDL-water.
		      viscosity: 0.00000 mPa s for DDL water.

	Total moles in diffuse layer (excluding water)

	Element       	     Moles
	Al            	  2.0099e-06
	C             	  2.3429e-05
	Ca            	  9.4858e-05
	Cl            	  1.4785e-03
	Cu            	  8.4666e-06
	Fe            	  6.4058e-04
	H             	  1.5267e-05
	K             	  6.1741e-06
	Mg            	  1.3735e-03
	Mn            	 -4.0833e-05
	Na            	  2.2403e-04
	O             	  2.1456e-01
	S             	  5.3624e-02
	Zn            	  6.1735e-06

Surf          
	  1.500e-01  moles
	                                   Mole                     Log
	Species               Moles    Fraction    Molality    Molality

	SurfOH2+          8.193e-02       0.546   8.198e-02      -1.086
	SurfOH            4.454e-02       0.297   4.457e-02      -1.351
	SurfOCu+          1.168e-02       0.078   1.168e-02      -1.932
	SurfOMn+          1.037e-02       0.069   1.037e-02      -1.984
	SurfOZn+          9.314e-04       0.006   9.320e-04      -3.031
	SurfO-            5.548e-04       0.004   5.551e-04      -3.256

-----------------------------Solution composition------------------------------

	Elements           Molality       Moles

	Al                5.829e-05   5.825e-05
	C                 4.371e-04   4.369e-04
	Ca                1.016e-02   1.015e-02
	Cl                9.647e-03   9.641e-03
	Cu                6.390e-05   6.386e-05
	Fe                5.345e-02   5.341e-02
	K                 2.026e-04   2.025e-04
	Mg                1.582e-02   1.581e-02
	Mn                1.148e-02   1.147e-02
	Na                9.525e-03   9.520e-03
	S                 9.139e-02   9.133e-02
	Zn                4.270e-04   4.267e-04

----------------------------Description of solution----------------------------

                                       pH  =   5.743      Charge balance
                                       pe  =   2.706      Adjusted to redox equilibrium
      Specific Conductance (µS/cm,  25°C)  = 11498
                          Density (g/cm³)  =   1.01007
                               Volume (L)  =   1.00309
                        Viscosity (mPa s)  =   0.91072
                        Activity of water  =   0.997
                 Ionic strength (mol/kgw)  =   2.219e-01
                       Mass of water (kg)  =   9.994e-01
                 Total alkalinity (eq/kg)  =   2.269e-04
                       Total CO2 (mol/kg)  =   4.371e-04
                         Temperature (°C)  =  25.00
                  Electrical balance (eq)  =   9.017e-15
 Percent error, 100*(Cat-|An|)/(Cat+|An|)  =   0.00
                               Iterations  =   1 (17 overall)
                                  Total H  = 1.109448e+02
                                  Total O  = 5.583872e+01

----------------------------Distribution of species----------------------------

                                               Log       Log       Log    mole V
   Species          Molality    Activity  Molality  Activity     Gamma   cm³/mol

   H+              2.276e-06   1.806e-06    -5.643    -5.743    -0.100      0.00
   OH-             8.002e-09   5.589e-09    -8.097    -8.253    -0.156     -3.45
   H2O             5.551e+01   9.972e-01     1.744    -0.001     0.000     18.07
Al            5.829e-05
   AlSO4+          2.378e-05   1.716e-05    -4.624    -4.765    -0.142     (0)  
   Al(OH)2+        1.202e-05   8.895e-06    -4.920    -5.051    -0.131     (0)  
   Al(SO4)2-       1.089e-05   7.859e-06    -4.963    -5.105    -0.142     (0)  
   AlOH+2          6.862e-06   2.055e-06    -5.164    -5.687    -0.524    -26.91
   Al+3            3.002e-06   3.747e-07    -5.523    -6.426    -0.904    -40.78
   Al(OH)4-        1.044e-06   7.533e-07    -5.981    -6.123    -0.142     (0)  
   Al(OH)3         6.877e-07   7.238e-07    -6.163    -6.140     0.022     (0)  
   AlHSO4+2        9.046e-12   2.748e-12   -11.044   -11.561    -0.517     (0)  
C(-4)         0.000e+00
   CH4             0.000e+00   0.000e+00   -46.824   -46.802     0.022     35.46
C(4)          4.371e-04
   CO2             2.445e-04   2.529e-04    -3.612    -3.597     0.015     34.43
   HCO3-           8.395e-05   6.211e-05    -4.076    -4.207    -0.131     25.18
   FeHCO3+         7.958e-05   5.908e-05    -4.099    -4.229    -0.129     (0)  
   MnHCO3+         2.422e-05   1.773e-05    -4.616    -4.751    -0.135     (0)  
   MgHCO3+         2.338e-06   1.662e-06    -5.631    -5.779    -0.148      5.72
   ZnHCO3+         7.440e-07   5.524e-07    -6.128    -6.258    -0.129     (0)  
   CaHCO3+         6.264e-07   4.702e-07    -6.203    -6.328    -0.125      9.88
   MnCO3           3.899e-07   4.104e-07    -6.409    -6.387     0.022     (0)  
   FeCO3           3.497e-07   3.680e-07    -6.456    -6.434     0.022     (0)  
   NaHCO3          3.063e-07   3.393e-07    -6.514    -6.469     0.044     31.73
   CuHCO3+         9.544e-08   7.085e-08    -7.020    -7.150    -0.129     (0)  
   ZnCO3           2.160e-08   2.273e-08    -7.666    -7.643     0.022     (0)  
   CuCO3           1.873e-08   1.972e-08    -7.727    -7.705     0.022     (0)  
   CO3-2           5.385e-09   1.613e-09    -8.269    -8.792    -0.524     -2.12
   CaCO3           5.053e-09   5.318e-09    -8.296    -8.274     0.022    -14.60
   MgCO3           3.344e-09   3.519e-09    -8.476    -8.454     0.022    -17.09
   KHCO3           3.308e-09   3.324e-09    -8.480    -8.478     0.002     41.03
   (CO2)2          1.115e-09   1.174e-09    -8.953    -8.930     0.022     68.87
   Zn(CO3)2-2      2.581e-12   7.839e-13   -11.588   -12.106    -0.517     (0)  
   Cu(CO3)2-2      1.318e-13   4.003e-14   -12.880   -13.398    -0.517     (0)  
Ca            1.016e-02
   Ca+2            6.281e-03   1.963e-03    -2.202    -2.707    -0.505    -17.17
   CaSO4           3.876e-03   3.965e-03    -2.412    -2.402     0.010      7.22
   CaHCO3+         6.264e-07   4.702e-07    -6.203    -6.328    -0.125      9.88
   CaHSO4+         8.082e-08   6.000e-08    -7.092    -7.222    -0.129     (0)  
   CaCO3           5.053e-09   5.318e-09    -8.296    -8.274     0.022    -14.60
   CaOH+           2.423e-10   1.799e-10    -9.616    -9.745    -0.129     (0)  
Cl            9.647e-03
   Cl-             9.316e-03   6.594e-03    -2.031    -2.181    -0.150     18.48
   MnCl+           1.175e-04   8.605e-05    -3.930    -4.065    -0.135     -2.87
   FeCl+           1.166e-04   8.659e-05    -3.933    -4.063    -0.129     (0)  
   CuCl2-          4.545e-05   3.230e-05    -4.342    -4.491    -0.148     (0)  
   ZnCl+           1.765e-06   1.254e-06    -5.753    -5.902    -0.148    -14.44
   CuCl3-2         1.175e-06   3.375e-07    -5.930    -6.472    -0.542     (0)  
   MnCl2           2.354e-07   2.477e-07    -6.628    -6.606     0.022     85.89
   CuCl+           5.686e-08   4.040e-08    -7.245    -7.394    -0.148      1.18
   ZnCl2           8.227e-09   8.658e-09    -8.085    -8.063     0.022    102.03
   ZnOHCl          8.094e-09   8.518e-09    -8.092    -8.070     0.022     (0)  
   HCl             3.300e-09   4.102e-09    -8.481    -8.387     0.094     (0)  
   MnCl3-          6.145e-10   4.499e-10    -9.211    -9.347    -0.135     44.32
   CuCl2           1.359e-10   1.431e-10    -9.867    -9.844     0.022     31.02
   ZnCl3-          9.015e-11   6.406e-11   -10.045   -10.193    -0.148     15.68
   ZnCl4-2         7.372e-13   2.117e-13   -12.132   -12.674    -0.542    147.54
   FeCl+2          3.204e-13   9.201e-14   -12.494   -13.036    -0.542     (0)  
   CuCl3-          4.711e-15   3.347e-15   -14.327   -14.475    -0.148     (0)  
   FeCl2+          3.702e-15   2.710e-15   -14.432   -14.567    -0.135     (0)  
   FeCl3           1.698e-18   1.787e-18   -17.770   -17.748     0.022     (0)  
   CuCl4-2         3.852e-19   1.106e-19   -18.414   -18.956    -0.542     (0)  
Cu(1)         5.013e-05
   CuCl2-          4.545e-05   3.230e-05    -4.342    -4.491    -0.148     (0)  
   Cu+             3.500e-06   2.349e-06    -5.456    -5.629    -0.173     (0)  
   CuCl3-2         1.175e-06   3.375e-07    -5.930    -6.472    -0.542     (0)  
Cu(2)         1.377e-05
   Cu+2            7.171e-06   2.276e-06    -5.144    -5.643    -0.498    -25.72
   CuSO4           6.395e-06   6.731e-06    -5.194    -5.172     0.022     13.09
   CuHCO3+         9.544e-08   7.085e-08    -7.020    -7.150    -0.129     (0)  
   CuCl+           5.686e-08   4.040e-08    -7.245    -7.394    -0.148      1.18
   CuCO3           1.873e-08   1.972e-08    -7.727    -7.705     0.022     (0)  
   CuOH+           1.769e-08   1.257e-08    -7.752    -7.901    -0.148     (0)  
   Cu(OH)2         1.378e-08   1.450e-08    -7.861    -7.839     0.022     (0)  
   Cu2(OH)2+2      2.276e-10   6.914e-11    -9.643   -10.160    -0.517     (0)  
   CuCl2           1.359e-10   1.431e-10    -9.867    -9.844     0.022     31.02
   Cu(CO3)2-2      1.318e-13   4.003e-14   -12.880   -13.398    -0.517     (0)  
   CuCl3-          4.711e-15   3.347e-15   -14.327   -14.475    -0.148     (0)  
   Cu(OH)3-        6.500e-16   4.825e-16   -15.187   -15.316    -0.129     (0)  
   CuCl4-2         3.852e-19   1.106e-19   -18.414   -18.956    -0.542     (0)  
   Cu(OH)4-2       1.750e-22   5.317e-23   -21.757   -22.274    -0.517     (0)  
   Cu(HS)3-        0.000e+00   0.000e+00  -104.189  -104.318    -0.129     (0)  
Fe(2)         5.345e-02
   Fe+2            2.997e-02   9.513e-03    -1.523    -2.022    -0.498    -21.21
   FeSO4           2.328e-02   2.450e-02    -1.633    -1.611     0.022     30.28
   FeCl+           1.166e-04   8.659e-05    -3.933    -4.063    -0.129     (0)  
   FeHCO3+         7.958e-05   5.908e-05    -4.099    -4.229    -0.129     (0)  
   FeOH+           2.269e-06   1.661e-06    -5.644    -5.780    -0.135     (0)  
   FeHSO4+         3.917e-07   2.908e-07    -6.407    -6.536    -0.129     (0)  
   FeCO3           3.497e-07   3.680e-07    -6.456    -6.434     0.022     (0)  
   Fe(OH)2         7.419e-12   7.808e-12   -11.130   -11.107     0.022     (0)  
   Fe(OH)3-        2.188e-16   1.602e-16   -15.660   -15.795    -0.135     (0)  
   Fe(HS)2         0.000e+00   0.000e+00   -76.144   -76.122     0.022     (0)  
   Fe(HS)3-        0.000e+00   0.000e+00  -115.481  -115.610    -0.129     (0)  
Fe(3)         4.334e-07
   Fe(OH)2+        4.072e-07   3.012e-07    -6.390    -6.521    -0.131     (0)  
   Fe(OH)3         2.036e-08   2.143e-08    -7.691    -7.669     0.022     (0)  
   FeOH+2          5.736e-09   1.647e-09    -8.241    -8.783    -0.542     (0)  
   FeSO4+          1.002e-10   7.337e-11    -9.999   -10.134    -0.135     (0)  
   Fe(SO4)2-       3.131e-11   2.325e-11   -10.504   -10.634    -0.129     (0)  
   Fe(OH)4-        1.459e-11   1.079e-11   -10.836   -10.967    -0.131     (0)  
   Fe+3            3.702e-12   4.620e-13   -11.432   -12.335    -0.904     (0)  
   FeCl+2          3.204e-13   9.201e-14   -12.494   -13.036    -0.542     (0)  
   Fe2(OH)2+4      8.580e-15   7.304e-17   -14.066   -16.136    -2.070     (0)  
   FeCl2+          3.702e-15   2.710e-15   -14.432   -14.567    -0.135     (0)  
   FeHSO4+2        1.168e-15   3.548e-16   -14.933   -15.450    -0.517     (0)  
   Fe3(OH)4+5      7.884e-18   4.597e-21   -17.103   -20.338    -3.234     (0)  
   FeCl3           1.698e-18   1.787e-18   -17.770   -17.748     0.022     (0)  
H(0)          1.696e-20
   H2              8.481e-21   8.925e-21   -20.072   -20.049     0.022     28.61
K             2.026e-04
   K+              1.702e-04   1.198e-04    -3.769    -3.921    -0.153      9.36
   KSO4-           3.239e-05   2.640e-05    -4.490    -4.578    -0.089     29.05
   KHCO3           3.308e-09   3.324e-09    -8.480    -8.478     0.002     41.03
Mg            1.582e-02
   MgSO4           7.828e-03   8.670e-03    -2.106    -2.062     0.044     -0.40
   Mg+2            6.823e-03   2.286e-03    -2.166    -2.641    -0.475    -20.89
   Mg(SO4)2-2      1.168e-03   4.136e-04    -2.933    -3.383    -0.451     45.38
   MgHCO3+         2.338e-06   1.662e-06    -5.631    -5.779    -0.148      5.72
   MgOH+           6.040e-09   4.584e-09    -8.219    -8.339    -0.120     (0)  
   MgCO3           3.344e-09   3.519e-09    -8.476    -8.454     0.022    -17.09
Mn(2)         1.148e-02
   Mn+2            1.009e-02   3.203e-03    -1.996    -2.494    -0.498    -17.45
   MnSO4           1.248e-03   1.187e-03    -2.904    -2.926    -0.022     17.15
   MnCl+           1.175e-04   8.605e-05    -3.930    -4.065    -0.135     -2.87
   MnHCO3+         2.422e-05   1.773e-05    -4.616    -4.751    -0.135     (0)  
   MnCO3           3.899e-07   4.104e-07    -6.409    -6.387     0.022     (0)  
   MnCl2           2.354e-07   2.477e-07    -6.628    -6.606     0.022     85.89
   MnOH+           6.211e-08   4.547e-08    -7.207    -7.342    -0.135     (0)  
   MnCl3-          6.145e-10   4.499e-10    -9.211    -9.347    -0.135     44.32
   Mn(OH)3-        1.168e-20   8.549e-21   -19.933   -20.068    -0.135     (0)  
Mn(3)         4.034e-25
   Mn+3            4.034e-25   5.035e-26   -24.394   -25.298    -0.904     (0)  
Na            9.525e-03
   Na+             8.444e-03   6.273e-03    -2.073    -2.203    -0.129     -0.90
   NaSO4-          1.082e-03   7.980e-04    -2.966    -3.098    -0.132     19.34
   NaHCO3          3.063e-07   3.393e-07    -6.514    -6.469     0.044     31.73
   Na2SO4          2.333e-09   2.441e-09    -8.632    -8.612     0.020     47.96
O(0)          0.000e+00
   O2              0.000e+00   0.000e+00   -52.288   -52.266     0.022     30.40
S(-2)         0.000e+00
   H2S             0.000e+00   0.000e+00   -40.349   -40.327     0.022     36.27
   HS-             0.000e+00   0.000e+00   -41.369   -41.525    -0.156     21.02
   S-2             0.000e+00   0.000e+00   -48.158   -48.700    -0.542     (0)  
   Zn(HS)2         0.000e+00   0.000e+00   -72.283   -72.261     0.022     (0)  
   Fe(HS)2         0.000e+00   0.000e+00   -76.144   -76.122     0.022     (0)  
   (H2S)2          0.000e+00   0.000e+00   -81.954   -81.932     0.022     30.09
   Cu(HS)3-        0.000e+00   0.000e+00  -104.189  -104.318    -0.129     (0)  
   Zn(HS)3-        0.000e+00   0.000e+00  -112.497  -112.626    -0.129     (0)  
   Fe(HS)3-        0.000e+00   0.000e+00  -115.481  -115.610    -0.129     (0)  
S(6)          9.139e-02
   SO4-2           5.147e-02   1.448e-02    -1.288    -1.839    -0.551     15.62
   FeSO4           2.328e-02   2.450e-02    -1.633    -1.611     0.022     30.28
   MgSO4           7.828e-03   8.670e-03    -2.106    -2.062     0.044     -0.40
   CaSO4           3.876e-03   3.965e-03    -2.412    -2.402     0.010      7.22
   MnSO4           1.248e-03   1.187e-03    -2.904    -2.926    -0.022     17.15
   Mg(SO4)2-2      1.168e-03   4.136e-04    -2.933    -3.383    -0.451     45.38
   NaSO4-          1.082e-03   7.980e-04    -2.966    -3.098    -0.132     19.34
   ZnSO4           1.769e-04   1.862e-04    -3.752    -3.730     0.022      6.48
   KSO4-           3.239e-05   2.640e-05    -4.490    -4.578    -0.089     29.05
   AlSO4+          2.378e-05   1.716e-05    -4.624    -4.765    -0.142     (0)  
   Al(SO4)2-       1.089e-05   7.859e-06    -4.963    -5.105    -0.142     (0)  
   CuSO4           6.395e-06   6.731e-06    -5.194    -5.172     0.022     13.09
   HSO4-           3.425e-06   2.543e-06    -5.465    -5.595    -0.129     40.67
   Zn(SO4)2-2      1.511e-06   2.093e-07    -5.821    -6.679    -0.858     45.31
   FeHSO4+         3.917e-07   2.908e-07    -6.407    -6.536    -0.129     (0)  
   CaHSO4+         8.082e-08   6.000e-08    -7.092    -7.222    -0.129     (0)  
   Na2SO4          2.333e-09   2.441e-09    -8.632    -8.612     0.020     47.96
   FeSO4+          1.002e-10   7.337e-11    -9.999   -10.134    -0.135     (0)  
   Fe(SO4)2-       3.131e-11   2.325e-11   -10.504   -10.634    -0.129     (0)  
   AlHSO4+2        9.046e-12   2.748e-12   -11.044   -11.561    -0.517     (0)  
   FeHSO4+2        1.168e-15   3.548e-16   -14.933   -15.450    -0.517     (0)  
Zn            4.270e-04
   Zn+2            2.460e-04   7.065e-05    -3.609    -4.151    -0.542    -24.46
   ZnSO4           1.769e-04   1.862e-04    -3.752    -3.730     0.022      6.48
   ZnCl+           1.765e-06   1.254e-06    -5.753    -5.902    -0.148    -14.44
   Zn(SO4)2-2      1.511e-06   2.093e-07    -5.821    -6.679    -0.858     45.31
   ZnHCO3+         7.440e-07   5.524e-07    -6.128    -6.258    -0.129     (0)  
   ZnOH+           5.762e-08   4.277e-08    -7.239    -7.369    -0.129     (0)  
   ZnCO3           2.160e-08   2.273e-08    -7.666    -7.643     0.022     (0)  
   ZnCl2           8.227e-09   8.658e-09    -8.085    -8.063     0.022    102.03
   ZnOHCl          8.094e-09   8.518e-09    -8.092    -8.070     0.022     (0)  
   Zn(OH)2         2.577e-10   2.712e-10    -9.589    -9.567     0.022     (0)  
   ZnCl3-          9.015e-11   6.406e-11   -10.045   -10.193    -0.148     15.68
   Zn(CO3)2-2      2.581e-12   7.839e-13   -11.588   -12.106    -0.517     (0)  
   ZnCl4-2         7.372e-13   2.117e-13   -12.132   -12.674    -0.542    147.54
   Zn(OH)3-        6.379e-16   4.736e-16   -15.195   -15.325    -0.129     (0)  
   Zn(OH)4-2       1.365e-22   4.145e-23   -21.865   -22.382    -0.517     (0)  
   Zn(HS)2         0.000e+00   0.000e+00   -72.283   -72.261     0.022     (0)  
   Zn(HS)3-        0.000e+00   0.000e+00  -112.497  -112.626    -0.129     (0)  

------------------------------Saturation indices-------------------------------

  Phase               SI** log IAP   log K(298 K,   1 atm)

  Al(OH)3(a)       -0.00     10.80   10.80  Al(OH)3
  AlOHSO4          -0.32     -2.52   -2.20  AlOHSO4
  Alunite           8.97      7.57   -1.40  KAl3(SO4)2(OH)6
  Anhydrite        -0.23     -4.55   -4.31  CaSO4
  Aragonite        -3.16    -11.50   -8.34  CaCO3
  Arcanite         -7.80     -9.68   -1.88  K2SO4
  Calcite          -3.02    -11.50   -8.48  CaCO3
  CH4(g)          -44.00    -46.80   -2.80  CH4
  CO2(g)           -2.13     -3.60   -1.47  CO2
  Dolomite         -5.85    -22.93  -17.08  CaMg(CO3)2
  Epsomite         -2.75     -4.49   -1.74  MgSO4:7H2O
  Fe(OH)3          -0.00      4.89    4.89  Fe(OH)3
  Fe(OH)3(a)       -0.00      4.89    4.89  Fe(OH)3
  FeS(ppt)        -33.89    -37.80   -3.92  FeS
  Gibbsite          2.69     10.80    8.11  Al(OH)3
  Goethite          5.89      4.89   -1.00  FeOOH
  Gypsum            0.00     -4.55   -4.55  CaSO4:2H2O
  H2(g)           -16.95    -20.05   -3.10  H2
  H2O(g)           -1.50     -0.00    1.50  H2O
  H2S(g)          -39.33    -47.27   -7.94  H2S
  Halite           -5.95     -4.38    1.57  NaCl
  Hausmannite     -17.16     43.87   61.03  Mn3O4
  Hematite         13.79      9.79   -4.01  Fe2O3
  Hexahydrite      -2.92     -4.49   -1.57  MgSO4:6H2O
  Jarosite-K       -0.94    -10.15   -9.21  KFe3(SO4)2(OH)6
  Kieserite        -3.32     -4.48   -1.16  MgSO4:H2O
  Mackinawite     -33.16    -37.80   -4.65  FeS
  Manganite        -7.90     17.44   25.34  MnOOH
  Melanterite      -1.66     -3.87   -2.21  FeSO4:7H2O
  Mirabilite       -5.55     -6.26   -0.71  Na2SO4:10H2O
  MnO2            -15.49     25.89   41.38  MnO2
  O2(g)           -49.37    -52.27   -2.89  O2
  Pyrite          -49.69    -68.17  -18.48  FeS2
  Pyrochroite      -6.21      8.99   15.20  Mn(OH)2
  Pyrolusite      -15.49     25.89   41.38  MnO2:H2O
  Rhodochrosite    -0.16    -11.29  -11.13  MnCO3
  Siderite          0.08    -10.81  -10.89  FeCO3
  Smithsonite      -2.94    -12.94  -10.00  ZnCO3
  Sphalerite      -28.31    -39.93  -11.62  ZnS
  Sulfur          -28.31    -23.43    4.88  S
  Sylvite          -7.00     -6.10    0.90  KCl
  Thenardite       -6.89     -6.24    0.65  Na2SO4
  Zn(OH)2(e)       -4.17      7.33   11.50  Zn(OH)2

**For a gas, SI = log10(fugacity). Fugacity = pressure * phi / 1 atm.
  For ideal gases, phi = 1.


Cell 2.

Using solution 2.	Solution after simulation 1.
Using surface 2.	
Using pure phase assemblage 2.	Pure-phase assemblage after simulation 1.

-------------------------------Phase assemblage--------------------------------

                                                      Moles in assemblage
Phase               SI  log IAP  log K(T, P)   Initial       Final       Delta

Al(OH)3(a)        0.00    10.80     10.80    0.000e+00   4.458e-06   4.458e-06
AlOHSO4          -1.59    -3.79     -2.20    0.000e+00           0   0.000e+00
Calcite           0.00    -8.48     -8.48    1.174e-01   8.424e-02  -3.314e-02
Fe(OH)3           0.00     4.89      4.89    7.999e-01   8.196e-01   1.974e-02
Gypsum            0.00    -4.55     -4.55    3.020e-02   6.139e-02   3.119e-02
MnO2            -16.34    25.04     41.38    9.923e-03           0  -9.923e-03

------------------------------Surface composition------------------------------

Diffuse Double Layer Surface-Complexation Model

Surf          
	  1.734e-17  Surface + diffuse layer charge, eq
	  7.492e-02  Surface charge, eq
	  1.854e-01  sigma, C/m²
	  7.289e-02  psi, V
	 -2.837e+00  -F*psi/RT
	  5.859e-02  exp(-F*psi/RT)
	  6.000e+02  specific area, m²/g
	  3.900e+04  m² for   6.500e+01 g

	Water in diffuse layer: 3.900e-02 kg, 100.0% of total DDL-water.
		      viscosity: 0.00000 mPa s for DDL water.

	Total moles in diffuse layer (excluding water)

	Element       	     Moles
	Al            	  6.7500e-07
	C             	  3.5014e-03
	Ca            	  9.1073e-06
	Cl            	  1.7418e-03
	Cu            	  1.5982e-06
	Fe            	  1.0581e-04
	H             	  2.9394e-03
	K             	  4.4014e-06
	Mg            	  8.0509e-04
	Mn            	 -6.4169e-05
	Na            	  1.4389e-04
	O             	  1.5410e-01
	S             	  3.6037e-02
	Zn            	  1.5519e-07

Surf          
	  1.500e-01  moles
	                                   Mole                     Log
	Species               Moles    Fraction    Molality    Molality

	SurfOH            6.952e-02       0.463   6.969e-02      -1.157
	SurfOH2+          3.986e-02       0.266   3.996e-02      -1.398
	SurfOMn+          3.718e-02       0.248   3.727e-02      -1.429
	SurfO-            2.778e-03       0.019   2.784e-03      -2.555
	SurfOCu+          4.179e-04       0.003   4.189e-04      -3.378
	SurfOZn+          2.419e-04       0.002   2.425e-04      -3.615

-----------------------------Solution composition------------------------------

	Elements           Molality       Moles

	Al                8.601e-06   8.580e-06
	C                 4.362e-02   4.352e-02
	Ca                1.226e-02   1.223e-02
	Cl                1.013e-02   1.011e-02
	Cu                8.851e-06   8.830e-06
	Fe                3.349e-02   3.341e-02
	K                 2.012e-04   2.007e-04
	Mg                1.559e-02   1.556e-02
	Mn                8.728e-03   8.707e-03
	Na                9.460e-03   9.437e-03
	S                 5.492e-02   5.479e-02
	Zn                2.134e-05   2.129e-05

----------------------------Description of solution----------------------------

                                       pH  =   6.299      Charge balance
                                       pe  =   1.294      Adjusted to redox equilibrium
      Specific Conductance (µS/cm,  25°C)  = 8787
                          Density (g/cm³)  =   1.00728
                               Volume (L)  =   1.00179
                        Viscosity (mPa s)  =   0.93478
                        Activity of water  =   0.997
                 Ionic strength (mol/kgw)  =   1.630e-01
                       Mass of water (kg)  =   9.976e-01
                 Total alkalinity (eq/kg)  =   2.991e-02
                       Total CO2 (mol/kg)  =   4.362e-02
                         Temperature (°C)  =  25.00
                  Electrical balance (eq)  =   9.104e-15
 Percent error, 100*(Cat-|An|)/(Cat+|An|)  =   0.00
                               Iterations  =   1 (15 overall)
                                  Total H  = 1.107756e+02
                                  Total O  = 5.570893e+01

----------------------------Distribution of species----------------------------

                                               Log       Log       Log    mole V
   Species          Molality    Activity  Molality  Activity     Gamma   cm³/mol

   H+              6.230e-07   5.019e-07    -6.206    -6.299    -0.094      0.00
   OH-             2.781e-08   2.011e-08    -7.556    -7.696    -0.141     -3.58
   H2O             5.551e+01   9.974e-01     1.744    -0.001     0.000     18.07
Al            8.601e-06
   Al(OH)4-        3.648e-06   2.711e-06    -5.438    -5.567    -0.129     (0)  
   Al(OH)2+        3.258e-06   2.472e-06    -5.487    -5.607    -0.120     (0)  
   Al(OH)3         6.971e-07   7.238e-07    -6.157    -6.140     0.016     (0)  
   AlOH+2          4.792e-07   1.587e-07    -6.320    -6.799    -0.480    -26.99
   AlSO4+          3.493e-07   2.596e-07    -6.457    -6.586    -0.129     (0)  
   Al(SO4)2-       1.128e-07   8.382e-08    -6.948    -7.077    -0.129     (0)  
   Al+3            5.624e-08   8.039e-09    -7.250    -8.095    -0.845    -40.91
   AlHSO4+2        3.545e-14   1.155e-14   -13.450   -13.937    -0.487     (0)  
C(-4)         6.118e-39
   CH4             6.118e-39   6.352e-39   -38.213   -38.197     0.016     35.46
C(4)          4.362e-02
   HCO3-           1.679e-02   1.274e-02    -1.775    -1.895    -0.120     25.06
   CO2             1.406e-02   1.441e-02    -1.852    -1.841     0.011     34.43
   FeHCO3+         8.889e-03   6.716e-03    -2.051    -2.173    -0.122     (0)  
   MnHCO3+         2.753e-03   2.070e-03    -2.560    -2.684    -0.124     (0)  
   MgHCO3+         5.558e-04   4.078e-04    -3.255    -3.390    -0.135      5.70
   CaHCO3+         1.780e-04   1.367e-04    -3.750    -3.864    -0.115      9.86
   MnCO3           1.660e-04   1.724e-04    -3.780    -3.764     0.016     (0)  
   FeCO3           1.450e-04   1.505e-04    -3.839    -3.822     0.016     (0)  
   NaHCO3          6.721e-05   7.245e-05    -4.173    -4.140     0.033     31.73
   ZnHCO3+         6.181e-06   4.670e-06    -5.209    -5.331    -0.122     (0)  
   CaCO3           5.358e-06   5.563e-06    -5.271    -5.255     0.016    -14.60
   (CO2)2          3.670e-06   3.810e-06    -5.435    -5.419     0.016     68.87
   CO3-2           3.593e-06   1.190e-06    -5.445    -5.924    -0.480     -2.41
   MgCO3           2.993e-06   3.107e-06    -5.524    -5.508     0.016    -17.09
   KHCO3           7.260e-07   7.286e-07    -6.139    -6.138     0.002     41.03
   ZnCO3           6.662e-07   6.916e-07    -6.176    -6.160     0.016     (0)  
   CuHCO3+         1.093e-07   8.254e-08    -6.962    -7.083    -0.122     (0)  
   CuCO3           7.960e-08   8.265e-08    -7.099    -7.083     0.016     (0)  
   Zn(CO3)2-2      5.400e-08   1.760e-08    -7.268    -7.755    -0.487     (0)  
   Cu(CO3)2-2      3.800e-10   1.238e-10    -9.420    -9.907    -0.487     (0)  
Ca            1.226e-02
   Ca+2            8.182e-03   2.783e-03    -2.087    -2.556    -0.468    -17.28
   CaSO4           3.898e-03   3.964e-03    -2.409    -2.402     0.007      7.22
   CaHCO3+         1.780e-04   1.367e-04    -3.750    -3.864    -0.115      9.86
   CaCO3           5.358e-06   5.563e-06    -5.271    -5.255     0.016    -14.60
   CaHSO4+         2.206e-08   1.667e-08    -7.656    -7.778    -0.122     (0)  
   CaOH+           1.215e-09   9.178e-10    -8.916    -9.037    -0.122     (0)  
Cl            1.013e-02
   Cl-             9.974e-03   7.289e-03    -2.001    -2.137    -0.136     18.42
   MnCl+           7.201e-05   5.414e-05    -4.143    -4.266    -0.124     -2.89
   FeCl+           7.022e-05   5.306e-05    -4.154    -4.275    -0.122     (0)  
   CuCl2-          7.895e-06   5.792e-06    -5.103    -5.237    -0.135     (0)  
   CuCl3-2         2.093e-07   6.691e-08    -6.679    -7.175    -0.495     (0)  
   MnCl2           1.659e-07   1.723e-07    -6.780    -6.764     0.016     85.89
   ZnCl+           7.790e-08   5.714e-08    -7.108    -7.243    -0.135    -14.26
   ZnOHCl          1.346e-09   1.397e-09    -8.871    -8.855     0.016     (0)  
   HCl             1.074e-09   1.260e-09    -8.969    -8.900     0.069     (0)  
   MnCl3-          4.599e-10   3.458e-10    -9.337    -9.461    -0.124     44.11
   ZnCl2           4.201e-10   4.361e-10    -9.377    -9.360     0.016    102.03
   CuCl+           3.458e-10   2.537e-10    -9.461    -9.596    -0.135      1.07
   ZnCl3-          4.862e-12   3.567e-12   -11.313   -11.448    -0.135     16.07
   CuCl2           9.565e-13   9.930e-13   -12.019   -12.003     0.016     31.02
   ZnCl4-2         4.075e-14   1.303e-14   -13.390   -13.885    -0.495    147.09
   FeCl+2          6.825e-15   2.182e-15   -14.166   -14.661    -0.495     (0)  
   FeCl2+          9.447e-17   7.104e-17   -16.025   -16.148    -0.124     (0)  
   CuCl3-          3.501e-17   2.568e-17   -16.456   -16.590    -0.135     (0)  
   FeCl3           4.987e-20   5.178e-20   -19.302   -19.286     0.016     (0)  
   CuCl4-2         2.934e-21   9.381e-22   -20.533   -21.028    -0.495     (0)  
Cu(1)         8.597e-06
   CuCl2-          7.895e-06   5.792e-06    -5.103    -5.237    -0.135     (0)  
   Cu+             4.922e-07   3.448e-07    -6.308    -6.462    -0.155     (0)  
   CuCl3-2         2.093e-07   6.691e-08    -6.679    -7.175    -0.495     (0)  
Cu(2)         2.541e-07
   CuHCO3+         1.093e-07   8.254e-08    -6.962    -7.083    -0.122     (0)  
   CuCO3           7.960e-08   8.265e-08    -7.099    -7.083     0.016     (0)  
   Cu+2            3.718e-08   1.293e-08    -7.430    -7.888    -0.459    -25.82
   CuSO4           2.597e-08   2.696e-08    -7.586    -7.569     0.016     13.09
   Cu(OH)2         1.028e-09   1.067e-09    -8.988    -8.972     0.016     (0)  
   Cu(CO3)2-2      3.800e-10   1.238e-10    -9.420    -9.907    -0.487     (0)  
   CuOH+           3.503e-10   2.570e-10    -9.456    -9.590    -0.135     (0)  
   CuCl+           3.458e-10   2.537e-10    -9.461    -9.596    -0.135      1.07
   CuCl2           9.565e-13   9.930e-13   -12.019   -12.003     0.016     31.02
   Cu2(OH)2+2      8.870e-14   2.890e-14   -13.052   -13.539    -0.487     (0)  
   Cu(OH)3-        1.691e-16   1.278e-16   -15.772   -15.894    -0.122     (0)  
   CuCl3-          3.501e-17   2.568e-17   -16.456   -16.590    -0.135     (0)  
   CuCl4-2         2.934e-21   9.381e-22   -20.533   -21.028    -0.495     (0)  
   Cu(OH)4-2       1.555e-22   5.067e-23   -21.808   -22.295    -0.487     (0)  
   Cu(HS)3-        0.000e+00   0.000e+00   -88.019   -88.140    -0.122     (0)  
Fe(2)         3.349e-02
   Fe+2            1.516e-02   5.273e-03    -1.819    -2.278    -0.459    -21.31
   FeSO4           9.222e-03   9.575e-03    -2.035    -2.019     0.016     30.28
   FeHCO3+         8.889e-03   6.716e-03    -2.051    -2.173    -0.122     (0)  
   FeCO3           1.450e-04   1.505e-04    -3.839    -3.822     0.016     (0)  
   FeCl+           7.022e-05   5.306e-05    -4.154    -4.275    -0.122     (0)  
   FeOH+           4.407e-06   3.314e-06    -5.356    -5.480    -0.124     (0)  
   FeHSO4+         4.181e-08   3.159e-08    -7.379    -7.500    -0.122     (0)  
   Fe(OH)2         5.399e-11   5.605e-11   -10.268   -10.251     0.016     (0)  
   Fe(OH)3-        5.504e-15   4.139e-15   -14.259   -14.383    -0.124     (0)  
   Fe(HS)2         0.000e+00   0.000e+00   -64.112   -64.096     0.016     (0)  
   Fe(HS)3-        0.000e+00   0.000e+00   -97.321   -97.443    -0.122     (0)  
Fe(3)         1.314e-07
   Fe(OH)2+        1.103e-07   8.370e-08    -6.957    -7.077    -0.120     (0)  
   Fe(OH)3         2.064e-08   2.143e-08    -7.685    -7.669     0.016     (0)  
   FeOH+2          3.978e-10   1.272e-10    -9.400    -9.896    -0.495     (0)  
   Fe(OH)4-        5.120e-11   3.884e-11   -10.291   -10.411    -0.120     (0)  
   FeSO4+          1.476e-12   1.110e-12   -11.831   -11.955    -0.124     (0)  
   Fe(SO4)2-       3.282e-13   2.479e-13   -12.484   -12.606    -0.122     (0)  
   Fe+3            6.935e-14   9.913e-15   -13.159   -14.004    -0.845     (0)  
   FeCl+2          6.825e-15   2.182e-15   -14.166   -14.661    -0.495     (0)  
   FeCl2+          9.447e-17   7.104e-17   -16.025   -16.148    -0.124     (0)  
   Fe2(OH)2+4      3.863e-17   4.355e-19   -16.413   -18.361    -1.948     (0)  
   FeHSO4+2        4.578e-18   1.492e-18   -17.339   -17.826    -0.487     (0)  
   FeCl3           4.987e-20   5.178e-20   -19.302   -19.286     0.016     (0)  
   Fe3(OH)4+5      8.421e-21   7.616e-24   -20.075   -23.118    -3.044     (0)  
H(0)          8.865e-19
   H2              4.432e-19   4.602e-19   -18.353   -18.337     0.016     28.61
K             2.012e-04
   K+              1.761e-04   1.281e-04    -3.754    -3.893    -0.138      9.31
   KSO4-           2.443e-05   1.990e-05    -4.612    -4.701    -0.089     27.74
   KHCO3           7.260e-07   7.286e-07    -6.139    -6.138     0.002     41.03
Mg            1.559e-02
   Mg+2            7.600e-03   2.736e-03    -2.119    -2.563    -0.444    -20.99
   MgSO4           6.787e-03   7.316e-03    -2.168    -2.136     0.033     -0.40
   Mg(SO4)2-2      6.464e-04   2.461e-04    -3.190    -3.609    -0.419     44.51
   MgHCO3+         5.558e-04   4.078e-04    -3.255    -3.390    -0.135      5.70
   MgCO3           2.993e-06   3.107e-06    -5.524    -5.508     0.016    -17.09
   MgOH+           2.547e-08   1.974e-08    -7.594    -7.705    -0.111     (0)  
Mn(2)         8.728e-03
   Mn+2            5.243e-03   1.824e-03    -2.280    -2.739    -0.459    -17.73
   MnHCO3+         2.753e-03   2.070e-03    -2.560    -2.684    -0.124     (0)  
   MnSO4           4.943e-04   4.764e-04    -3.306    -3.322    -0.016     17.15
   MnCO3           1.660e-04   1.724e-04    -3.780    -3.764     0.016     (0)  
   MnCl+           7.201e-05   5.414e-05    -4.143    -4.266    -0.124     -2.89
   MnCl2           1.659e-07   1.723e-07    -6.780    -6.764     0.016     85.89
   MnOH+           1.239e-07   9.315e-08    -6.907    -7.031    -0.124     (0)  
   MnCl3-          4.599e-10   3.458e-10    -9.337    -9.461    -0.124     44.11
   Mn(OH)3-        3.016e-19   2.268e-19   -18.521   -18.644    -0.124     (0)  
Mn(3)         7.760e-27
   Mn+3            7.760e-27   1.109e-27   -26.110   -26.955    -0.845     (0)  
Na            9.460e-03
   Na+             8.615e-03   6.531e-03    -2.065    -2.185    -0.120     -0.98
   NaSO4-          7.779e-04   5.859e-04    -3.109    -3.232    -0.123     18.89
   NaHCO3          6.721e-05   7.245e-05    -4.173    -4.140     0.033     31.73
   Na2SO4          1.805e-09   1.866e-09    -8.744    -8.729     0.014     47.96
O(0)          0.000e+00
   O2              0.000e+00   0.000e+00   -55.707   -55.691     0.016     30.40
S(-2)         2.317e-35
   H2S             1.746e-35   1.812e-35   -34.758   -34.742     0.016     36.27
   HS-             5.709e-36   4.130e-36   -35.243   -35.384    -0.141     20.95
   S-2             0.000e+00   0.000e+00   -41.507   -42.003    -0.495     (0)  
   Zn(HS)2         0.000e+00   0.000e+00   -61.380   -61.364     0.016     (0)  
   Fe(HS)2         0.000e+00   0.000e+00   -64.112   -64.096     0.016     (0)  
   (H2S)2          0.000e+00   0.000e+00   -70.778   -70.762     0.016     30.09
   Cu(HS)3-        0.000e+00   0.000e+00   -88.019   -88.140    -0.122     (0)  
   Zn(HS)3-        0.000e+00   0.000e+00   -95.466   -95.588    -0.122     (0)  
   Fe(HS)3-        0.000e+00   0.000e+00   -97.321   -97.443    -0.122     (0)  
S(6)          5.492e-02
   SO4-2           3.242e-02   1.021e-02    -1.489    -1.991    -0.502     15.40
   FeSO4           9.222e-03   9.575e-03    -2.035    -2.019     0.016     30.28
   MgSO4           6.787e-03   7.316e-03    -2.168    -2.136     0.033     -0.40
   CaSO4           3.898e-03   3.964e-03    -2.409    -2.402     0.007      7.22
   NaSO4-          7.779e-04   5.859e-04    -3.109    -3.232    -0.123     18.89
   Mg(SO4)2-2      6.464e-04   2.461e-04    -3.190    -3.609    -0.419     44.51
   MnSO4           4.943e-04   4.764e-04    -3.306    -3.322    -0.016     17.15
   KSO4-           2.443e-05   1.990e-05    -4.612    -4.701    -0.089     27.74
   ZnSO4           5.213e-06   5.412e-06    -5.283    -5.267     0.016      6.48
   HSO4-           6.595e-07   4.982e-07    -6.181    -6.303    -0.122     40.61
   AlSO4+          3.493e-07   2.596e-07    -6.457    -6.586    -0.129     (0)  
   Al(SO4)2-       1.128e-07   8.382e-08    -6.948    -7.077    -0.129     (0)  
   FeHSO4+         4.181e-08   3.159e-08    -7.379    -7.500    -0.122     (0)  
   CuSO4           2.597e-08   2.696e-08    -7.586    -7.569     0.016     13.09
   Zn(SO4)2-2      2.399e-08   4.290e-09    -7.620    -8.368    -0.748     45.23
   CaHSO4+         2.206e-08   1.667e-08    -7.656    -7.778    -0.122     (0)  
   Na2SO4          1.805e-09   1.866e-09    -8.744    -8.729     0.014     47.96
   FeSO4+          1.476e-12   1.110e-12   -11.831   -11.955    -0.124     (0)  
   Fe(SO4)2-       3.282e-13   2.479e-13   -12.484   -12.606    -0.122     (0)  
   AlHSO4+2        3.545e-14   1.155e-14   -13.450   -13.937    -0.487     (0)  
   FeHSO4+2        4.578e-18   1.492e-18   -17.339   -17.826    -0.487     (0)  
Zn            2.134e-05
   Zn+2            9.111e-06   2.913e-06    -5.040    -5.536    -0.495    -24.55
   ZnHCO3+         6.181e-06   4.670e-06    -5.209    -5.331    -0.122     (0)  
   ZnSO4           5.213e-06   5.412e-06    -5.283    -5.267     0.016      6.48
   ZnCO3           6.662e-07   6.916e-07    -6.176    -6.160     0.016     (0)  
   ZnCl+           7.790e-08   5.714e-08    -7.108    -7.243    -0.135    -14.26
   Zn(CO3)2-2      5.400e-08   1.760e-08    -7.268    -7.755    -0.487     (0)  
   Zn(SO4)2-2      2.399e-08   4.290e-09    -7.620    -8.368    -0.748     45.23
   ZnOH+           8.401e-09   6.347e-09    -8.076    -8.197    -0.122     (0)  
   ZnOHCl          1.346e-09   1.397e-09    -8.871    -8.855     0.016     (0)  
   ZnCl2           4.201e-10   4.361e-10    -9.377    -9.360     0.016    102.03
   Zn(OH)2         1.395e-10   1.448e-10    -9.855    -9.839     0.016     (0)  
   ZnCl3-          4.862e-12   3.567e-12   -11.313   -11.448    -0.135     16.07
   ZnCl4-2         4.075e-14   1.303e-14   -13.390   -13.885    -0.495    147.09
   Zn(OH)3-        1.205e-15   9.101e-16   -14.919   -15.041    -0.122     (0)  
   Zn(OH)4-2       8.797e-22   2.867e-22   -21.056   -21.543    -0.487     (0)  
   Zn(HS)2         0.000e+00   0.000e+00   -61.380   -61.364     0.016     (0)  
   Zn(HS)3-        0.000e+00   0.000e+00   -95.466   -95.588    -0.122     (0)  

------------------------------Saturation indices-------------------------------

  Phase               SI** log IAP   log K(298 K,   1 atm)

  Al(OH)3(a)        0.00     10.80   10.80  Al(OH)3
  AlOHSO4          -1.59     -3.79   -2.20  AlOHSO4
  Alunite           7.03      5.63   -1.40  KAl3(SO4)2(OH)6
  Anhydrite        -0.23     -4.55   -4.31  CaSO4
  Aragonite        -0.14     -8.48   -8.34  CaCO3
  Arcanite         -7.90     -9.78   -1.88  K2SO4
  Calcite           0.00     -8.48   -8.48  CaCO3
  CH4(g)          -35.40    -38.20   -2.80  CH4
  CO2(g)           -0.37     -1.84   -1.47  CO2
  Dolomite          0.12    -16.97  -17.08  CaMg(CO3)2
  Epsomite         -2.82     -4.56   -1.74  MgSO4:7H2O
  Fe(OH)3           0.00      4.89    4.89  Fe(OH)3
  Fe(OH)3(a)        0.00      4.89    4.89  Fe(OH)3
  FeS(ppt)        -27.45    -31.36   -3.92  FeS
  Gibbsite          2.69     10.80    8.11  Al(OH)3
  Goethite          5.89      4.89   -1.00  FeOOH
  Gypsum            0.00     -4.55   -4.55  CaSO4:2H2O
[...]

	Total moles in diffuse layer (excluding water)

	Element       	     Moles
	Al            	  3.2585e-06
	C             	  4.1503e-04
	Ca            	  8.5790e-05
	Cl            	  1.1728e-03
	Cu            	  6.9665e-05
	Fe            	  5.6633e-04
	H             	  3.9953e-04
	K             	  4.8303e-06
	Mg            	  6.3524e-04
	Mn            	 -8.5110e-07
	Na            	  1.7803e-04
	O             	  8.2883e-02
	S             	  2.0409e-02
	Zn            	  5.4352e-10

Surf          
	  1.500e-01  moles
	                                   Mole                     Log
	Species               Moles    Fraction    Molality    Molality

	SurfOH            8.708e-02       0.581   8.712e-02      -1.060
	SurfOMn+          3.521e-02       0.235   3.523e-02      -1.453
	SurfOH2+          1.489e-02       0.099   1.489e-02      -1.827
	SurfO-            1.167e-02       0.078   1.168e-02      -1.933
	SurfOCu+          1.147e-03       0.008   1.147e-03      -2.940
	SurfOZn+          9.731e-06       0.000   9.737e-06      -5.012

-----------------------------Solution composition------------------------------

	Elements           Molality       Moles

	Al                2.732e-05   2.731e-05
	C                 6.668e-03   6.664e-03
	Ca                1.078e-02   1.077e-02
	Cl                9.517e-03   9.511e-03
	Cu                5.800e-04   5.797e-04
	Fe                5.304e-02   5.301e-02
	K                 2.028e-04   2.027e-04
	Mg                1.587e-02   1.586e-02
	Mn                3.436e-04   3.434e-04
	Na                9.539e-03   9.533e-03
	S                 7.705e-02   7.701e-02
	Zn                3.879e-08   3.877e-08

----------------------------Description of solution----------------------------

                                       pH  =   7.150      Charge balance
                                       pe  =  -1.521      Adjusted to redox equilibrium
      Specific Conductance (µS/cm,  25°C)  = 9741
                          Density (g/cm³)  =   1.00850
                               Volume (L)  =   1.00311
                        Viscosity (mPa s)  =   0.91518
                        Activity of water  =   0.998
                 Ionic strength (mol/kgw)  =   1.844e-01
                       Mass of water (kg)  =   9.994e-01
                 Total alkalinity (eq/kg)  =   6.840e-03
                       Total CO2 (mol/kg)  =   6.668e-03
                         Temperature (°C)  =  25.00
                  Electrical balance (eq)  =   1.668e-14
 Percent error, 100*(Cat-|An|)/(Cat+|An|)  =   0.00
                               Iterations  =   1 (9 overall)
                                  Total H  = 1.109563e+02
                                  Total O  = 5.580294e+01

----------------------------Distribution of species----------------------------

                                               Log       Log       Log    mole V
   Species          Molality    Activity  Molality  Activity     Gamma   cm³/mol

   OH-             1.998e-07   1.425e-07    -6.699    -6.846    -0.147     -3.53
   H+              8.846e-08   7.083e-08    -7.053    -7.150    -0.097      0.00
   H2O             5.551e+01   9.976e-01     1.744    -0.001     0.000     18.07
Al            2.732e-05
   Al(OH)4-        2.615e-05   1.921e-05    -4.582    -4.716    -0.134     (0)  
   Al(OH)3         6.937e-07   7.238e-07    -6.159    -6.140     0.018     (0)  
   Al(OH)2+        4.644e-07   3.488e-07    -6.333    -6.457    -0.124     (0)  
   AlOH+2          9.930e-09   3.160e-09    -8.003    -8.500    -0.497    -26.95
   AlSO4+          1.226e-09   9.003e-10    -8.912    -9.046    -0.134     (0)  
   Al(SO4)2-       4.885e-10   3.588e-10    -9.311    -9.445    -0.134     (0)  
   Al+3            1.669e-10   2.259e-11    -9.778   -10.646    -0.869    -40.86
   AlHSO4+2        1.788e-17   5.654e-18   -16.748   -17.248    -0.500     (0)  
C(-4)         7.850e-25
   CH4             7.850e-25   8.190e-25   -24.105   -24.087     0.018     35.46
C(4)          6.668e-03
   HCO3-           2.955e-03   2.219e-03    -2.529    -2.654    -0.124     25.11
   FeHCO3+         2.866e-03   2.149e-03    -2.543    -2.668    -0.125     (0)  
   CO2             3.445e-04   3.543e-04    -3.463    -3.451     0.012     34.43
   FeCO3           3.272e-04   3.414e-04    -3.485    -3.467     0.018     (0)  
   MgHCO3+         9.029e-05   6.540e-05    -4.044    -4.184    -0.140      5.71
   CaHCO3+         2.535e-05   1.929e-05    -4.596    -4.715    -0.119      9.87
   MnHCO3+         2.449e-05   1.822e-05    -4.611    -4.739    -0.128     (0)  
   NaHCO3          1.144e-05   1.246e-05    -4.942    -4.905     0.037     31.73
   MnCO3           1.031e-05   1.075e-05    -4.987    -4.968     0.018     (0)  
   CaCO3           5.332e-06   5.563e-06    -5.273    -5.255     0.018    -14.60
   CO3-2           4.617e-06   1.469e-06    -5.336    -5.833    -0.497     -2.30
   MgCO3           3.385e-06   3.532e-06    -5.470    -5.452     0.018    -17.09
   KHCO3           1.229e-07   1.234e-07    -6.910    -6.909     0.002     41.03
   CuCO3           1.432e-08   1.494e-08    -7.844    -7.826     0.018     (0)  
   CuHCO3+         2.808e-09   2.105e-09    -8.552    -8.677    -0.125     (0)  
   ZnHCO3+         2.329e-09   1.746e-09    -8.633    -8.758    -0.125     (0)  
   (CO2)2          2.208e-09   2.304e-09    -8.656    -8.638     0.018     68.87
   ZnCO3           1.756e-09   1.832e-09    -8.755    -8.737     0.018     (0)  
   Zn(CO3)2-2      1.820e-10   5.756e-11    -9.740   -10.240    -0.500     (0)  
   Cu(CO3)2-2      8.738e-11   2.763e-11   -10.059   -10.559    -0.500     (0)  
Ca            1.078e-02
   Ca+2            6.858e-03   2.254e-03    -2.164    -2.647    -0.483    -17.24
   CaSO4           3.888e-03   3.962e-03    -2.410    -2.402     0.008      7.22
   CaHCO3+         2.535e-05   1.929e-05    -4.596    -4.715    -0.119      9.87
   CaCO3           5.332e-06   5.563e-06    -5.273    -5.255     0.018    -14.60
   CaOH+           7.025e-09   5.268e-09    -8.153    -8.278    -0.125     (0)  
   CaHSO4+         3.136e-09   2.352e-09    -8.504    -8.629    -0.125     (0)  
Cl            9.517e-03
   Cl-             8.331e-03   6.011e-03    -2.079    -2.221    -0.142     18.44
   CuCl2-          5.204e-04   3.769e-04    -3.284    -3.424    -0.140     (0)  
   FeCl+           1.072e-04   8.036e-05    -3.970    -4.095    -0.125     (0)  
   CuCl3-2         1.172e-05   3.591e-06    -4.931    -5.445    -0.514     (0)  
   MnCl+           3.033e-06   2.256e-06    -5.518    -5.647    -0.128     -2.88
   MnCl2           5.674e-09   5.920e-09    -8.246    -8.228     0.018     85.89
   ZnCl+           1.396e-10   1.011e-10    -9.855    -9.995    -0.140    -14.32
   HCl             1.224e-10   1.467e-10    -9.912    -9.834     0.078     (0)  
   CuCl+           4.228e-11   3.063e-11   -10.374   -10.514    -0.140      1.11
   ZnOHCl          1.679e-11   1.752e-11   -10.775   -10.756     0.018     (0)  
   MnCl3-          1.317e-11   9.802e-12   -10.880   -11.009    -0.128     44.19
   ZnCl2           6.100e-13   6.365e-13   -12.215   -12.196     0.018    102.03
   CuCl2           9.476e-14   9.887e-14   -13.023   -13.005     0.018     31.02
   ZnCl3-          5.926e-15   4.293e-15   -14.227   -14.367    -0.140     15.93
   ZnCl4-2         4.221e-17   1.293e-17   -16.375   -16.888    -0.514    147.26
   FeCl+2          1.650e-17   5.056e-18   -16.782   -17.296    -0.514     (0)  
   CuCl3-          2.911e-18   2.109e-18   -17.536   -17.676    -0.140     (0)  
   FeCl2+          1.825e-19   1.358e-19   -18.739   -18.867    -0.128     (0)  
   CuCl4-2         2.074e-22   6.353e-23   -21.683   -22.197    -0.514     (0)  
   FeCl3           7.822e-23   8.161e-23   -22.107   -22.088     0.018     (0)  
Cu(1)         5.800e-04
   CuCl2-          5.204e-04   3.769e-04    -3.284    -3.424    -0.140     (0)  
   Cu+             4.789e-05   3.299e-05    -4.320    -4.482    -0.162     (0)  
   CuCl3-2         1.172e-05   3.591e-06    -4.931    -5.445    -0.514     (0)  
Cu(2)         3.545e-08
   CuCO3           1.432e-08   1.494e-08    -7.844    -7.826     0.018     (0)  
   Cu(OH)2         7.518e-09   7.844e-09    -8.124    -8.105     0.018     (0)  
   Cu+2            5.645e-09   1.893e-09    -8.248    -8.723    -0.474    -25.78
   CuSO4           4.669e-09   4.871e-09    -8.331    -8.312     0.018     13.09
   CuHCO3+         2.808e-09   2.105e-09    -8.552    -8.677    -0.125     (0)  
   CuOH+           3.680e-10   2.666e-10    -9.434    -9.574    -0.140     (0)  
   Cu(CO3)2-2      8.738e-11   2.763e-11   -10.059   -10.559    -0.500     (0)  
   CuCl+           4.228e-11   3.063e-11   -10.374   -10.514    -0.140      1.11
   Cu2(OH)2+2      9.835e-14   3.110e-14   -13.007   -13.507    -0.500     (0)  
   CuCl2           9.476e-14   9.887e-14   -13.023   -13.005     0.018     31.02
   Cu(OH)3-        8.877e-15   6.657e-15   -14.052   -14.177    -0.125     (0)  
   CuCl3-          2.911e-18   2.109e-18   -17.536   -17.676    -0.140     (0)  
   Cu(OH)4-2       5.916e-20   1.871e-20   -19.228   -19.728    -0.500     (0)  
   CuCl4-2         2.074e-22   6.353e-23   -21.683   -22.197    -0.514     (0)  
   Cu(HS)3-        0.000e+00   0.000e+00   -43.968   -44.093    -0.125     (0)  
Fe(2)         5.304e-02
   Fe+2            2.888e-02   9.685e-03    -1.539    -2.014    -0.474    -21.27
   FeSO4           2.080e-02   2.171e-02    -1.682    -1.663     0.018     30.28
   FeHCO3+         2.866e-03   2.149e-03    -2.543    -2.668    -0.125     (0)  
   FeCO3           3.272e-04   3.414e-04    -3.485    -3.467     0.018     (0)  
   FeCl+           1.072e-04   8.036e-05    -3.970    -4.095    -0.125     (0)  
   FeOH+           5.797e-05   4.313e-05    -4.237    -4.365    -0.128     (0)  
   FeHSO4+         1.348e-08   1.011e-08    -7.870    -7.995    -0.125     (0)  
   Fe(OH)2         4.955e-09   5.170e-09    -8.305    -8.286     0.018     (0)  
   Fe(OH)3-        3.636e-12   2.705e-12   -11.439   -11.568    -0.128     (0)  
   Fe(HS)2         1.177e-34   1.228e-34   -33.929   -33.911     0.018     (0)  
   Fe(HS)3-        0.000e+00   0.000e+00   -52.172   -52.297    -0.125     (0)  
Fe(3)         3.664e-08
   Fe(OH)3         2.054e-08   2.143e-08    -7.687    -7.669     0.018     (0)  
   Fe(OH)2+        1.573e-08   1.181e-08    -7.803    -7.928    -0.124     (0)  
   Fe(OH)4-        3.665e-10   2.752e-10    -9.436    -9.560    -0.124     (0)  
   FeOH+2          8.266e-12   2.533e-12   -11.083   -11.596    -0.514     (0)  
   FeSO4+          5.174e-15   3.849e-15   -14.286   -14.415    -0.128     (0)  
   Fe(SO4)2-       1.415e-15   1.061e-15   -14.849   -14.974    -0.125     (0)  
   Fe+3            2.058e-16   2.785e-17   -15.687   -16.555    -0.869     (0)  
   FeCl+2          1.650e-17   5.056e-18   -16.782   -17.296    -0.514     (0)  
   FeCl2+          1.825e-19   1.358e-19   -18.739   -18.867    -0.128     (0)  
   Fe2(OH)2+4      1.727e-20   1.727e-22   -19.763   -21.763    -2.000     (0)  
   FeHSO4+2        2.309e-21   7.301e-22   -20.637   -21.137    -0.500     (0)  
   FeCl3           7.822e-23   8.161e-23   -22.107   -22.088     0.018     (0)  
   Fe3(OH)4+5      5.683e-25   4.260e-28   -24.245   -27.371    -3.125     (0)  
H(0)          7.507e-15
   H2              3.754e-15   3.916e-15   -14.426   -14.407     0.018     28.61
K             2.028e-04
   K+              1.734e-04   1.245e-04    -3.761    -3.905    -0.144      9.33
   KSO4-           2.932e-05   2.387e-05    -4.533    -4.622    -0.089     28.25
   KHCO3           1.229e-07   1.234e-07    -6.910    -6.909     0.002     41.03
Mg            1.587e-02
   MgSO4           7.635e-03   8.312e-03    -2.117    -2.080     0.037     -0.40
   Mg+2            7.205e-03   2.519e-03    -2.142    -2.599    -0.456    -20.95
   Mg(SO4)2-2      9.334e-04   3.451e-04    -3.030    -3.462    -0.432     44.85
   MgHCO3+         9.029e-05   6.540e-05    -4.044    -4.184    -0.140      5.71
   MgCO3           3.385e-06   3.532e-06    -5.470    -5.452     0.018    -17.09
   MgOH+           1.676e-07   1.288e-07    -6.776    -6.890    -0.114     (0)  
Mn(2)         3.436e-04
   Mn+2            2.747e-04   9.213e-05    -3.561    -4.036    -0.474    -17.62
   MnSO4           3.097e-05   2.971e-05    -4.509    -4.527    -0.018     17.15
   MnHCO3+         2.449e-05   1.822e-05    -4.611    -4.739    -0.128     (0)  
   MnCO3           1.031e-05   1.075e-05    -4.987    -4.968     0.018     (0)  
   MnCl+           3.033e-06   2.256e-06    -5.518    -5.647    -0.128     -2.88
   MnOH+           4.483e-08   3.335e-08    -7.348    -7.477    -0.128     (0)  
   MnCl2           5.674e-09   5.920e-09    -8.246    -8.228     0.018     85.89
   MnCl3-          1.317e-11   9.802e-12   -10.880   -11.009    -0.128     44.19
   Mn(OH)3-        5.482e-18   4.079e-18   -17.261   -17.389    -0.128     (0)  
Mn(3)         6.335e-31
   Mn+3            6.335e-31   8.574e-32   -30.198   -31.067    -0.869     (0)  
Na            9.539e-03
   Na+             8.572e-03   6.444e-03    -2.067    -2.191    -0.124     -0.95
   NaSO4-          9.556e-04   7.135e-04    -3.020    -3.147    -0.127     19.06
   NaHCO3          1.144e-05   1.246e-05    -4.942    -4.905     0.037     31.73
   Na2SO4          2.159e-09   2.242e-09    -8.666    -8.649     0.016     47.96
O(0)          0.000e+00
   O2              0.000e+00   0.000e+00   -63.569   -63.550     0.018     30.40
S(-2)         7.525e-21
   HS-             5.286e-21   3.772e-21   -20.277   -20.423    -0.147     20.98
   H2S             2.239e-21   2.336e-21   -20.650   -20.632     0.018     36.27
   S-2             2.099e-26   6.431e-27   -25.678   -26.192    -0.514     (0)  
   Fe(HS)2         1.177e-34   1.228e-34   -33.929   -33.911     0.018     (0)  
   Zn(HS)2         7.421e-35   7.743e-35   -34.130   -34.111     0.018     (0)  
   (H2S)2          0.000e+00   0.000e+00   -42.560   -42.541     0.018     30.09
   Cu(HS)3-        0.000e+00   0.000e+00   -43.968   -44.093    -0.125     (0)  
   Fe(HS)3-        0.000e+00   0.000e+00   -52.172   -52.297    -0.125     (0)  
   Zn(HS)3-        0.000e+00   0.000e+00   -53.250   -53.375    -0.125     (0)  
S(6)          7.705e-02
   SO4-2           4.184e-02   1.260e-02    -1.378    -1.899    -0.521     15.48
   FeSO4           2.080e-02   2.171e-02    -1.682    -1.663     0.018     30.28
   MgSO4           7.635e-03   8.312e-03    -2.117    -2.080     0.037     -0.40
   CaSO4           3.888e-03   3.962e-03    -2.410    -2.402     0.008      7.22
   NaSO4-          9.556e-04   7.135e-04    -3.020    -3.147    -0.127     19.06
   Mg(SO4)2-2      9.334e-04   3.451e-04    -3.030    -3.462    -0.432     44.85
   MnSO4           3.097e-05   2.971e-05    -4.509    -4.527    -0.018     17.15
   KSO4-           2.932e-05   2.387e-05    -4.533    -4.622    -0.089     28.25
   HSO4-           1.157e-07   8.680e-08    -6.936    -7.061    -0.125     40.64
   ZnSO4           1.374e-08   1.433e-08    -7.862    -7.844     0.018      6.48
   FeHSO4+         1.348e-08   1.011e-08    -7.870    -7.995    -0.125     (0)  
   CuSO4           4.669e-09   4.871e-09    -8.331    -8.312     0.018     13.09
   CaHSO4+         3.136e-09   2.352e-09    -8.504    -8.629    -0.125     (0)  
   Na2SO4          2.159e-09   2.242e-09    -8.666    -8.649     0.016     47.96
   AlSO4+          1.226e-09   9.003e-10    -8.912    -9.046    -0.134     (0)  
   Al(SO4)2-       4.885e-10   3.588e-10    -9.311    -9.445    -0.134     (0)  
   Zn(SO4)2-2      8.654e-11   1.402e-11   -10.063   -10.853    -0.790     45.26
   FeSO4+          5.174e-15   3.849e-15   -14.286   -14.415    -0.128     (0)  
   Fe(SO4)2-       1.415e-15   1.061e-15   -14.849   -14.974    -0.125     (0)  
   AlHSO4+2        1.788e-17   5.654e-18   -16.748   -17.248    -0.500     (0)  
   FeHSO4+2        2.309e-21   7.301e-22   -20.637   -21.137    -0.500     (0)  
Zn            3.879e-08
   Zn+2            2.040e-08   6.250e-09    -7.690    -8.204    -0.514    -24.51
   ZnSO4           1.374e-08   1.433e-08    -7.862    -7.844     0.018      6.48
   ZnHCO3+         2.329e-09   1.746e-09    -8.633    -8.758    -0.125     (0)  
   ZnCO3           1.756e-09   1.832e-09    -8.755    -8.737     0.018     (0)  
   Zn(CO3)2-2      1.820e-10   5.756e-11    -9.740   -10.240    -0.500     (0)  
   ZnCl+           1.396e-10   1.011e-10    -9.855    -9.995    -0.140    -14.32
   ZnOH+           1.287e-10   9.651e-11    -9.890   -10.015    -0.125     (0)  
   Zn(SO4)2-2      8.654e-11   1.402e-11   -10.063   -10.853    -0.790     45.26
   ZnOHCl          1.679e-11   1.752e-11   -10.775   -10.756     0.018     (0)  
   Zn(OH)2         1.496e-11   1.561e-11   -10.825   -10.807     0.018     (0)  
   ZnCl2           6.100e-13   6.365e-13   -12.215   -12.196     0.018    102.03
   ZnCl3-          5.926e-15   4.293e-15   -14.227   -14.367    -0.140     15.93
   Zn(OH)3-        9.268e-16   6.950e-16   -15.033   -15.158    -0.125     (0)  
   ZnCl4-2         4.221e-17   1.293e-17   -16.375   -16.888    -0.514    147.26
   Zn(OH)4-2       4.906e-21   1.551e-21   -20.309   -20.809    -0.500     (0)  
   Zn(HS)2         7.421e-35   7.743e-35   -34.130   -34.111     0.018     (0)  
   Zn(HS)3-        0.000e+00   0.000e+00   -53.250   -53.375    -0.125     (0)  

------------------------------Saturation indices-------------------------------

  Phase               SI** log IAP   log K(298 K,   1 atm)

  Al(OH)3(a)        0.00     10.80   10.80  Al(OH)3
  AlOHSO4          -3.20     -5.40   -2.20  AlOHSO4
  Alunite           4.65      3.25   -1.40  KAl3(SO4)2(OH)6
  Anhydrite        -0.23     -4.55   -4.31  CaSO4
  Aragonite        -0.14     -8.48   -8.34  CaCO3
  Arcanite         -7.83     -9.71   -1.88  K2SO4
  Calcite           0.00     -8.48   -8.48  CaCO3
  CH4(g)          -21.28    -24.09   -2.80  CH4
  CO2(g)           -1.98     -3.45   -1.47  CO2
  Dolomite          0.17    -16.91  -17.08  CaMg(CO3)2
  Epsomite         -2.77     -4.51   -1.74  MgSO4:7H2O
  Fe(OH)3          -0.00      4.89    4.89  Fe(OH)3
  Fe(OH)3(a)       -0.00      4.89    4.89  Fe(OH)3
  FeS(ppt)        -11.37    -15.29   -3.92  FeS
  Gibbsite          2.69     10.80    8.11  Al(OH)3
  Goethite          5.89      4.89   -1.00  FeOOH
  Gypsum            0.00     -4.55   -4.55  CaSO4:2H2O
  H2(g)           -11.31    -14.41   -3.10  H2
  H2O(g)           -1.50     -0.00    1.50  H2O
  H2S(g)          -19.64    -27.57   -7.94  H2S
  Halite           -5.98     -4.41    1.57  NaCl
  Hausmannite     -18.99     42.04   61.03  Mn3O4
  Hematite         13.79      9.79   -4.01  Fe2O3
  Hexahydrite      -2.94     -4.50   -1.57  MgSO4:6H2O
  Jarosite-K       -5.27    -14.48   -9.21  KFe3(SO4)2(OH)6
  Kieserite        -3.34     -4.50   -1.16  MgSO4:H2O
  Mackinawite     -10.64    -15.29   -4.65  FeS
  Manganite        -9.45     15.89   25.34  MnOOH
  Melanterite      -1.71     -3.92   -2.21  FeSO4:7H2O
  Mirabilite       -5.59     -6.29   -0.71  Na2SO4:10H2O
  MnO2            -19.86     21.52   41.38  MnO2
  O2(g)           -60.66    -63.55   -2.89  O2
  Pyrite          -13.12    -31.60  -18.48  FeS2
  Pyrochroite      -4.94     10.26   15.20  Mn(OH)2
  Pyrolusite      -19.86     21.52   41.38  MnO2:H2O
  Rhodochrosite     1.26     -9.87  -11.13  MnCO3
  Siderite          3.04     -7.85  -10.89  FeCO3
  Smithsonite      -4.04    -14.04  -10.00  ZnCO3
  Sphalerite       -9.86    -21.48  -11.62  ZnS
  Sulfur          -14.26     -9.37    4.88  S
  Sylvite          -7.03     -6.13    0.90  KCl
  Thenardite       -6.93     -6.28    0.65  Na2SO4
  Zn(OH)2(e)       -5.41      6.09   11.50  Zn(OH)2

**For a gas, SI = log10(fugacity). Fugacity = pressure * phi / 1 atm.
  For ideal gases, phi = 1.

------------------
End of simulation.
------------------

------------------------------------
Reading input data for simulation 2.
------------------------------------

