   Input file: uphill_NP
  Output file: uphill_NP.out
Database file: ../database/phreeqc.dat

------------------
Reading data base.
------------------

	SOLUTION_MASTER_SPECIES
	SOLUTION_SPECIES
	PHASES
	EXCHANGE_MASTER_SPECIES
	EXCHANGE_SPECIES
	SURFACE_MASTER_SPECIES
	SURFACE_SPECIES
	RATES
	END
------------------------------------
Reading input data for simulation 1.
------------------------------------

	DATABASE ../database/phreeqc.dat
	SELECTED_OUTPUT 101
	    file                uphill_NP_101.sel
	USER_PUNCH 101
	    headings Mu SC
	    start
	10 PUNCH STR_F$(MU, 20, 12)
	20 PUNCH STR_F$(SC, 20, 10)
	    end
	SOLUTION 0
	 pH 6 charge
	 N(5) 1e-3
	 Na 0.1
	 Cl 0.1
	SOLUTION 1-10
	 pH 4 charge
	 N(5) 0.1
	 Na 0.1
	 Cl 0.1
	TRANSPORT
	 cells 10
	 lengths 1e-3
	 boundary_conditions 1 3
	 shifts 1
	 flow_direction diffusion_only
	 timest 0.3 hour 1
	 multi_d true 1e-9 1 0.0 1.0 # Default D_w m2/s, porosity, porosity limit, exponent
	USER_GRAPH 1
WARNING: Cell-lengths were read for 1 cells. Last value is used till cell 10.
WARNING: No dispersivities were read; disp = 0 assumed.
WARNING: No porosities were read; used the value 1.00e+00 from -multi_D.
	 -headings  dist H+ NO3- Na+ Cl-
	 -axis_scale y_axis 0.0 0.12
	 -axis_scale x_axis 0.0 10 5 2.5
	 -axis_titles "Distance / mm" mmol/L
	 -plot_concentration_vs x
	 -initial_solutions true
	 -start
	 10 if step_no > 0 then goto 60
	 20   if cell_no > 1 then goto 80
	 30   graph_x 0
	 40   graph_y 0.001, 0.001, 0.1, 0.1
	 50   goto 80
	 60 graph_x dist * 1e3
	 70 graph_y mol("H+")*1e3, mol("NO3-")*1e3, mol("Na+")*1e3, mol("Cl-")*1e3
	 80 end
	 -end
	END
-------------------------------------------
Beginning of initial solution calculations.
-------------------------------------------

Initial solution 0.	

-----------------------------Solution composition------------------------------

	Elements           Molality       Moles

	Cl                1.000e-04   1.000e-04
	N(5)              1.000e-06   1.000e-06
	Na                1.000e-04   1.000e-04

----------------------------Description of solution----------------------------

                                       pH  =   6.001      Charge balance
                                       pe  =   4.000    
      Specific Conductance (µS/cm,  25°C)  = 12
                          Density (g/cm³)  =   0.99705
                               Volume (L)  =   1.00297
                        Activity of water  =   1.000
                 Ionic strength (mol/kgw)  =   1.010e-04
                       Mass of water (kg)  =   1.000e+00
                 Total alkalinity (eq/kg)  =  -1.000e-06
                         Temperature (°C)  =  25.00
                  Electrical balance (eq)  =  -1.131e-14
 Percent error, 100*(Cat-|An|)/(Cat+|An|)  =  -0.00
                               Iterations  =   2
                                  Total H  = 1.110124e+02
                                  Total O  = 5.550622e+01

----------------------------Distribution of species----------------------------

                                               Log       Log       Log    mole V
   Species          Molality    Activity  Molality  Activity     Gamma   cm³/mol

   H+              1.010e-06   9.987e-07    -5.996    -6.001    -0.005      0.00
   OH-             1.025e-08   1.013e-08    -7.989    -7.994    -0.005     -4.13
   H2O             5.551e+01   1.000e+00     1.744    -0.000     0.000     18.07
Cl            1.000e-04
   Cl-             1.000e-04   9.884e-05    -4.000    -4.005    -0.005     18.05
H(0)          1.412e-23
   H2              7.061e-24   7.062e-24   -23.151   -23.151     0.000     28.61
N(5)          1.000e-06
   NO3-            1.000e-06   9.884e-07    -6.000    -6.005    -0.005     29.47
Na            1.000e-04
   Na+             1.000e-04   9.884e-05    -4.000    -4.005    -0.005     -1.51
   NaOH            1.002e-22   1.002e-22   -21.999   -21.999     0.000     (0)  
O(0)          0.000e+00
   O2              0.000e+00   0.000e+00   -46.078   -46.078     0.000     30.40

------------------------------Saturation indices-------------------------------

  Phase               SI** log IAP   log K(298 K,   1 atm)

  H2(g)           -20.05    -23.15   -3.10  H2
  H2O(g)           -1.50     -0.00    1.50  H2O
  Halite           -9.58     -8.01    1.57  NaCl
  O2(g)           -43.19    -46.08   -2.89  O2

**For a gas, SI = log10(fugacity). Fugacity = pressure * phi / 1 atm.
  For ideal gases, phi = 1.

Initial solution 1.	

-----------------------------Solution composition------------------------------

	Elements           Molality       Moles

	Cl                1.000e-04   1.000e-04
	N(5)              1.000e-04   1.000e-04
	Na                1.000e-04   1.000e-04

----------------------------Description of solution----------------------------

                                       pH  =   4.007      Charge balance
                                       pe  =   4.000    
      Specific Conductance (µS/cm,  25°C)  = 54
                          Density (g/cm³)  =   0.99705
                               Volume (L)  =   1.00297
                        Activity of water  =   1.000
                 Ionic strength (mol/kgw)  =   2.000e-04
                       Mass of water (kg)  =   1.000e+00
                 Total alkalinity (eq/kg)  =  -1.000e-04
                         Temperature (°C)  =  25.00
                  Electrical balance (eq)  =  -1.899e-17
 Percent error, 100*(Cat-|An|)/(Cat+|An|)  =  -0.00
                               Iterations  =   3 (5 overall)
                                  Total H  = 1.110125e+02
                                  Total O  = 5.550652e+01

----------------------------Distribution of species----------------------------

                                               Log       Log       Log    mole V
   Species          Molality    Activity  Molality  Activity     Gamma   cm³/mol

   H+              1.000e-04   9.842e-05    -4.000    -4.007    -0.007      0.00
   OH-             1.045e-10   1.028e-10    -9.981    -9.988    -0.007     -4.12
   H2O             5.551e+01   1.000e+00     1.744    -0.000     0.000     18.07
Cl            1.000e-04
   Cl-             1.000e-04   9.838e-05    -4.000    -4.007    -0.007     18.06
H(0)          1.371e-19
   H2              6.857e-20   6.857e-20   -19.164   -19.164     0.000     28.61
N(5)          1.000e-04
   NO3-            1.000e-04   9.838e-05    -4.000    -4.007    -0.007     29.47
Na            1.000e-04
   Na+             1.000e-04   9.839e-05    -4.000    -4.007    -0.007     -1.50
   NaOH            1.012e-24   1.012e-24   -23.995   -23.995     0.000     (0)  
O(0)          0.000e+00
   O2              0.000e+00   0.000e+00   -54.052   -54.052     0.000     30.40

------------------------------Saturation indices-------------------------------

  Phase               SI** log IAP   log K(298 K,   1 atm)

  H2(g)           -16.06    -19.16   -3.10  H2
  H2O(g)           -1.50     -0.00    1.50  H2O
  Halite           -9.58     -8.01    1.57  NaCl
  O2(g)           -51.16    -54.05   -2.89  O2

**For a gas, SI = log10(fugacity). Fugacity = pressure * phi / 1 atm.
  For ideal gases, phi = 1.

------------------------------------
Beginning of transport calculations.
------------------------------------

-------------------------------
Equilibrating initial solutions
-------------------------------

Using solution 0.	

-----------------------------Solution composition------------------------------

	Elements           Molality       Moles

	Cl                1.000e-04   1.000e-04
	N                 1.000e-06   1.000e-06
	Na                1.000e-04   1.000e-04

----------------------------Description of solution----------------------------

                                       pH  =   6.001      Charge balance
                                       pe  =  13.252      Adjusted to redox equilibrium
      Specific Conductance (µS/cm,  25°C)  = 12
                          Density (g/cm³)  =   0.99705
                               Volume (L)  =   1.00297
                        Activity of water  =   1.000
                 Ionic strength (mol/kgw)  =   1.010e-04
                       Mass of water (kg)  =   1.000e+00
                 Total alkalinity (eq/kg)  =  -9.993e-07
                         Temperature (°C)  =  25.00
                  Electrical balance (eq)  =  -1.131e-14
 Percent error, 100*(Cat-|An|)/(Cat+|An|)  =  -0.00
                               Iterations  =  19 (24 overall)
                                  Total H  = 1.110124e+02
                                  Total O  = 5.550622e+01

----------------------------Distribution of species----------------------------

                                               Log       Log       Log    mole V
   Species          Molality    Activity  Molality  Activity     Gamma   cm³/mol

   H+              1.010e-06   9.981e-07    -5.996    -6.001    -0.005      0.00
   OH-             1.026e-08   1.014e-08    -7.989    -7.994    -0.005     -4.13
   H2O             5.551e+01   1.000e+00     1.744    -0.000     0.000     18.07
Cl            1.000e-04
   Cl-             1.000e-04   9.884e-05    -4.000    -4.005    -0.005     18.05
H(0)          0.000e+00
   H2              0.000e+00   0.000e+00   -41.657   -41.657     0.000     28.61
N(-3)         0.000e+00
   NH4+            0.000e+00   0.000e+00   -52.951   -52.956    -0.005     17.94
   NH3             0.000e+00   0.000e+00   -56.199   -56.199     0.000     24.42
N(0)          6.856e-10
   N2              3.428e-10   3.428e-10    -9.465    -9.465     0.000     29.29
N(3)          1.157e-16
   NO2-            1.157e-16   1.143e-16   -15.937   -15.942    -0.005     24.95
N(5)          9.993e-07
   NO3-            9.993e-07   9.877e-07    -6.000    -6.005    -0.005     29.47
Na            1.000e-04
   Na+             1.000e-04   9.884e-05    -4.000    -4.005    -0.005     -1.51
   NaOH            1.002e-22   1.002e-22   -21.999   -21.999     0.000     (0)  
O(0)          1.714e-09
   O2              8.570e-10   8.570e-10    -9.067    -9.067     0.000     30.40

------------------------------Saturation indices-------------------------------

  Phase               SI** log IAP   log K(298 K,   1 atm)

  H2(g)           -38.56    -41.66   -3.10  H2
  H2O(g)           -1.50     -0.00    1.50  H2O
  Halite           -9.58     -8.01    1.57  NaCl
  N2(g)            -6.29     -9.46   -3.18  N2
  NH3(g)          -58.00    -56.20    1.80  NH3
  O2(g)            -6.17     -9.07   -2.89  O2

**For a gas, SI = log10(fugacity). Fugacity = pressure * phi / 1 atm.
  For ideal gases, phi = 1.

Using solution 1.	

-----------------------------Solution composition------------------------------

	Elements           Molality       Moles

	Cl                1.000e-04   1.000e-04
	N                 1.000e-04   1.000e-04
	Na                1.000e-04   1.000e-04

----------------------------Description of solution----------------------------

                                       pH  =   4.007      Charge balance
                                       pe  =  15.816      Adjusted to redox equilibrium
      Specific Conductance (µS/cm,  25°C)  = 54
                          Density (g/cm³)  =   0.99705
                               Volume (L)  =   1.00297
                        Activity of water  =   1.000
                 Ionic strength (mol/kgw)  =   1.999e-04
                       Mass of water (kg)  =   1.000e+00
                 Total alkalinity (eq/kg)  =  -9.987e-05
                         Temperature (°C)  =  25.00
                  Electrical balance (eq)  =  -1.760e-17
 Percent error, 100*(Cat-|An|)/(Cat+|An|)  =  -0.00
                               Iterations  =  19 (43 overall)
                                  Total H  = 1.110125e+02
                                  Total O  = 5.550652e+01

----------------------------Distribution of species----------------------------

                                               Log       Log       Log    mole V
   Species          Molality    Activity  Molality  Activity     Gamma   cm³/mol

   H+              9.987e-05   9.829e-05    -4.001    -4.007    -0.007      0.00
   OH-             1.047e-10   1.030e-10    -9.980    -9.987    -0.007     -4.12
   H2O             5.551e+01   1.000e+00     1.744    -0.000     0.000     18.07
Cl            1.000e-04
   Cl-             1.000e-04   9.838e-05    -4.000    -4.007    -0.007     18.06
H(0)          0.000e+00
   H2              0.000e+00   0.000e+00   -42.797   -42.797     0.000     28.61
N(-3)         0.000e+00
   NH4+            0.000e+00   0.000e+00   -51.526   -51.533    -0.007     17.95
   NH3             0.000e+00   0.000e+00   -56.770   -56.770     0.000     24.42
N(0)          1.308e-07
   N2              6.541e-08   6.541e-08    -7.184    -7.184     0.000     29.29
N(3)          8.368e-16
   NO2-            8.368e-16   8.232e-16   -15.077   -15.084    -0.007     24.95
N(5)          9.987e-05
   NO3-            9.987e-05   9.825e-05    -4.001    -4.008    -0.007     29.47
Na            1.000e-04
   Na+             1.000e-04   9.839e-05    -4.000    -4.007    -0.007     -1.50
   NaOH            1.013e-24   1.013e-24   -23.994   -23.994     0.000     (0)  
O(0)          3.270e-07
   O2              1.635e-07   1.635e-07    -6.786    -6.786     0.000     30.40

------------------------------Saturation indices-------------------------------

  Phase               SI** log IAP   log K(298 K,   1 atm)

  H2(g)           -39.70    -42.80   -3.10  H2
  H2O(g)           -1.50     -0.00    1.50  H2O
  Halite           -9.58     -8.01    1.57  NaCl
  N2(g)            -4.01     -7.18   -3.18  N2
  NH3(g)          -58.57    -56.77    1.80  NH3
  O2(g)            -3.89     -6.79   -2.89  O2

**For a gas, SI = log10(fugacity). Fugacity = pressure * phi / 1 atm.
  For ideal gases, phi = 1.

Using solution 2.	

-----------------------------Solution composition------------------------------

	Elements           Molality       Moles

	Cl                1.000e-04   1.000e-04
	N                 1.000e-04   1.000e-04
	Na                1.000e-04   1.000e-04

----------------------------Description of solution----------------------------

                                       pH  =   4.007      Charge balance
                                       pe  =  15.816      Adjusted to redox equilibrium
      Specific Conductance (µS/cm,  25°C)  = 54
                          Density (g/cm³)  =   0.99705
                               Volume (L)  =   1.00297
                        Activity of water  =   1.000
                 Ionic strength (mol/kgw)  =   1.999e-04
                       Mass of water (kg)  =   1.000e+00
                 Total alkalinity (eq/kg)  =  -9.987e-05
                         Temperature (°C)  =  25.00
                  Electrical balance (eq)  =  -1.760e-17
 Percent error, 100*(Cat-|An|)/(Cat+|An|)  =  -0.00
                               Iterations  =  19 (62 overall)
                                  Total H  = 1.110125e+02
                                  Total O  = 5.550652e+01

----------------------------Distribution of species----------------------------

                                               Log       Log       Log    mole V
   Species          Molality    Activity  Molality  Activity     Gamma   cm³/mol

   H+              9.987e-05   9.829e-05    -4.001    -4.007    -0.007      0.00
   OH-             1.047e-10   1.030e-10    -9.980    -9.987    -0.007     -4.12
   H2O             5.551e+01   1.000e+00     1.744    -0.000     0.000     18.07
Cl            1.000e-04
   Cl-             1.000e-04   9.838e-05    -4.000    -4.007    -0.007     18.06
H(0)          0.000e+00
   H2              0.000e+00   0.000e+00   -42.797   -42.797     0.000     28.61
N(-3)         0.000e+00
   NH4+            0.000e+00   0.000e+00   -51.526   -51.533    -0.007     17.95
   NH3             0.000e+00   0.000e+00   -56.770   -56.770     0.000     24.42
N(0)          1.308e-07
   N2              6.541e-08   6.541e-08    -7.184    -7.184     0.000     29.29
N(3)          8.368e-16
   NO2-            8.368e-16   8.232e-16   -15.077   -15.084    -0.007     24.95
N(5)          9.987e-05
   NO3-            9.987e-05   9.825e-05    -4.001    -4.008    -0.007     29.47
Na            1.000e-04
   Na+             1.000e-04   9.839e-05    -4.000    -4.007    -0.007     -1.50
   NaOH            1.013e-24   1.013e-24   -23.994   -23.994     0.000     (0)  
O(0)          3.270e-07
   O2              1.635e-07   1.635e-07    -6.786    -6.786     0.000     30.40

------------------------------Saturation indices-------------------------------

  Phase               SI** log IAP   log K(298 K,   1 atm)

  H2(g)           -39.70    -42.80   -3.10  H2
  H2O(g)           -1.50     -0.00    1.50  H2O
  Halite           -9.58     -8.01    1.57  NaCl
  N2(g)            -4.01     -7.18   -3.18  N2
  NH3(g)          -58.57    -56.77    1.80  NH3
  O2(g)            -3.89     -6.79   -2.89  O2

**For a gas, SI = log10(fugacity). Fugacity = pressure * phi / 1 atm.
  For ideal gases, phi = 1.

Using solution 3.	

-----------------------------Solution composition------------------------------

	Elements           Molality       Moles

	Cl                1.000e-04   1.000e-04
	N                 1.000e-04   1.000e-04
	Na                1.000e-04   1.000e-04

----------------------------Description of solution----------------------------

                                       pH  =   4.007      Charge balance
                                       pe  =  15.816      Adjusted to redox equilibrium
      Specific Conductance (µS/cm,  25°C)  = 54
                          Density (g/cm³)  =   0.99705
                               Volume (L)  =   1.00297
                        Activity of water  =   1.000
                 Ionic strength (mol/kgw)  =   1.999e-04
                       Mass of water (kg)  =   1.000e+00
                 Total alkalinity (eq/kg)  =  -9.987e-05
                         Temperature (°C)  =  25.00
                  Electrical balance (eq)  =  -1.760e-17
 Percent error, 100*(Cat-|An|)/(Cat+|An|)  =  -0.00
                               Iterations  =  19 (81 overall)
                                  Total H  = 1.110125e+02
                                  Total O  = 5.550652e+01

----------------------------Distribution of species----------------------------

                                               Log       Log       Log    mole V
   Species          Molality    Activity  Molality  Activity     Gamma   cm³/mol

   H+              9.987e-05   9.829e-05    -4.001    -4.007    -0.007      0.00
   OH-             1.047e-10   1.030e-10    -9.980    -9.987    -0.007     -4.12
   H2O             5.551e+01   1.000e+00     1.744    -0.000     0.000     18.07
Cl            1.000e-04
   Cl-             1.000e-04   9.838e-05    -4.000    -4.007    -0.007     18.06
H(0)          0.000e+00
   H2              0.000e+00   0.000e+00   -42.797   -42.797     0.000     28.61
N(-3)         0.000e+00
   NH4+            0.000e+00   0.000e+00   -51.526   -51.533    -0.007     17.95
   NH3             0.000e+00   0.000e+00   -56.770   -56.770     0.000     24.42
N(0)          1.308e-07
   N2              6.541e-08   6.541e-08    -7.184    -7.184     0.000     29.29
N(3)          8.368e-16
   NO2-            8.368e-16   8.232e-16   -15.077   -15.084    -0.007     24.95
N(5)          9.987e-05
   NO3-            9.987e-05   9.825e-05    -4.001    -4.008    -0.007     29.47
Na            1.000e-04
   Na+             1.000e-04   9.839e-05    -4.000    -4.007    -0.007     -1.50
   NaOH            1.013e-24   1.013e-24   -23.994   -23.994     0.000     (0)  
O(0)          3.270e-07
   O2              1.635e-07   1.635e-07    -6.786    -6.786     0.000     30.40

------------------------------Saturation indices-------------------------------

  Phase               SI** log IAP   log K(298 K,   1 atm)

  H2(g)           -39.70    -42.80   -3.10  H2
  H2O(g)           -1.50     -0.00    1.50  H2O
  Halite           -9.58     -8.01    1.57  NaCl
  N2(g)            -4.01     -7.18   -3.18  N2
  NH3(g)          -58.57    -56.77    1.80  NH3
  O2(g)            -3.89     -6.79   -2.89  O2

**For a gas, SI = log10(fugacity). Fugacity = pressure * phi / 1 atm.
  For ideal gases, phi = 1.

Using solution 4.	

-----------------------------Solution composition------------------------------

	Elements           Molality       Moles

	Cl                1.000e-04   1.000e-04
	N                 1.000e-04   1.000e-04
	Na                1.000e-04   1.000e-04

----------------------------Description of solution----------------------------

                                       pH  =   4.007      Charge balance
                                       pe  =  15.816      Adjusted to redox equilibrium
      Specific Conductance (µS/cm,  25°C)  = 54
                          Density (g/cm³)  =   0.99705
                               Volume (L)  =   1.00297
                        Activity of water  =   1.000
                 Ionic strength (mol/kgw)  =   1.999e-04
                       Mass of water (kg)  =   1.000e+00
                 Total alkalinity (eq/kg)  =  -9.987e-05
                         Temperature (°C)  =  25.00
                  Electrical balance (eq)  =  -1.760e-17
 Percent error, 100*(Cat-|An|)/(Cat+|An|)  =  -0.00
                               Iterations  =  19 (100 overall)
                                  Total H  = 1.110125e+02
                                  Total O  = 5.550652e+01

----------------------------Distribution of species----------------------------

                                               Log       Log       Log    mole V
   Species          Molality    Activity  Molality  Activity     Gamma   cm³/mol

   H+              9.987e-05   9.829e-05    -4.001    -4.007    -0.007      0.00
   OH-             1.047e-10   1.030e-10    -9.980    -9.987    -0.007     -4.12
   H2O             5.551e+01   1.000e+00     1.744    -0.000     0.000     18.07
Cl            1.000e-04
   Cl-             1.000e-04   9.838e-05    -4.000    -4.007    -0.007     18.06
H(0)          0.000e+00
   H2              0.000e+00   0.000e+00   -42.797   -42.797     0.000     28.61
N(-3)         0.000e+00
   NH4+            0.000e+00   0.000e+00   -51.526   -51.533    -0.007     17.95
   NH3             0.000e+00   0.000e+00   -56.770   -56.770     0.000     24.42
N(0)          1.308e-07
   N2              6.541e-08   6.541e-08    -7.184    -7.184     0.000     29.29
N(3)          8.368e-16
   NO2-            8.368e-16   8.232e-16   -15.077   -15.084    -0.007     24.95
N(5)          9.987e-05
   NO3-            9.987e-05   9.825e-05    -4.001    -4.008    -0.007     29.47
Na            1.000e-04
   Na+             1.000e-04   9.839e-05    -4.000    -4.007    -0.007     -1.50
   NaOH            1.013e-24   1.013e-24   -23.994   -23.994     0.000     (0)  
O(0)          3.270e-07
   O2              1.635e-07   1.635e-07    -6.786    -6.786     0.000     30.40

------------------------------Saturation indices-------------------------------

  Phase               SI** log IAP   log K(298 K,   1 atm)

  H2(g)           -39.70    -42.80   -3.10  H2
  H2O(g)           -1.50     -0.00    1.50  H2O
  Halite           -9.58     -8.01    1.57  NaCl
  N2(g)            -4.01     -7.18   -3.18  N2
  NH3(g)          -58.57    -56.77    1.80  NH3
  O2(g)            -3.89     -6.79   -2.89  O2

**For a gas, SI = log10(fugacity). Fugacity = pressure * phi / 1 atm.
  For ideal gases, phi = 1.

Using solution 5.	

-----------------------------Solution composition------------------------------

	Elements           Molality       Moles

	Cl                1.000e-04   1.000e-04
	N                 1.000e-04   1.000e-04
	Na                1.000e-04   1.000e-04

----------------------------Description of solution----------------------------

                                       pH  =   4.007      Charge balance
                                       pe  =  15.816      Adjusted to redox equilibrium
      Specific Conductance (µS/cm,  25°C)  = 54
                          Density (g/cm³)  =   0.99705
                               Volume (L)  =   1.00297
                        Activity of water  =   1.000
                 Ionic strength (mol/kgw)  =   1.999e-04
                       Mass of water (kg)  =   1.000e+00
                 Total alkalinity (eq/kg)  =  -9.987e-05
                         Temperature (°C)  =  25.00
                  Electrical balance (eq)  =  -1.760e-17
 Percent error, 100*(Cat-|An|)/(Cat+|An|)  =  -0.00
                               Iterations  =  19 (119 overall)
                                  Total H  = 1.110125e+02
                                  Total O  = 5.550652e+01

----------------------------Distribution of species----------------------------

                                               Log       Log       Log    mole V
   Species          Molality    Activity  Molality  Activity     Gamma   cm³/mol

   H+              9.987e-05   9.829e-05    -4.001    -4.007    -0.007      0.00
   OH-             1.047e-10   1.030e-10    -9.980    -9.987    -0.007     -4.12
   H2O             5.551e+01   1.000e+00     1.744    -0.000     0.000     18.07
Cl            1.000e-04
   Cl-             1.000e-04   9.838e-05    -4.000    -4.007    -0.007     18.06
H(0)          0.000e+00
   H2              0.000e+00   0.000e+00   -42.797   -42.797     0.000     28.61
N(-3)         0.000e+00
   NH4+            0.000e+00   0.000e+00   -51.526   -51.533    -0.007     17.95
   NH3             0.000e+00   0.000e+00   -56.770   -56.770     0.000     24.42
N(0)          1.308e-07
   N2              6.541e-08   6.541e-08    -7.184    -7.184     0.000     29.29
N(3)          8.368e-16
   NO2-            8.368e-16   8.232e-16   -15.077   -15.084    -0.007     24.95
N(5)          9.987e-05
   NO3-            9.987e-05   9.825e-05    -4.001    -4.008    -0.007     29.47
Na            1.000e-04
   Na+             1.000e-04   9.839e-05    -4.000    -4.007    -0.007     -1.50
   NaOH            1.013e-24   1.013e-24   -23.994   -23.994     0.000     (0)  
O(0)          3.270e-07
   O2              1.635e-07   1.635e-07    -6.786    -6.786     0.000     30.40

------------------------------Saturation indices-------------------------------

  Phase               SI** log IAP   log K(298 K,   1 atm)

  H2(g)           -39.70    -42.80   -3.10  H2
  H2O(g)           -1.50     -0.00    1.50  H2O
  Halite           -9.58     -8.01    1.57  NaCl
  N2(g)            -4.01     -7.18   -3.18  N2
  NH3(g)          -58.57    -56.77    1.80  NH3
  O2(g)            -3.89     -6.79   -2.89  O2

**For a gas, SI = log10(fugacity). Fugacity = pressure * phi / 1 atm.
  For ideal gases, phi = 1.

Using solution 6.	

-----------------------------Solution composition------------------------------

	Elements           Molality       Moles

	Cl                1.000e-04   1.000e-04
	N                 1.000e-04   1.000e-04
	Na                1.000e-04   1.000e-04

----------------------------Description of solution----------------------------

                                       pH  =   4.007      Charge balance
                                       pe  =  15.816      Adjusted to redox equilibrium
      Specific Conductance (µS/cm,  25°C)  = 54
                          Density (g/cm³)  =   0.99705
                               Volume (L)  =   1.00297
                        Activity of water  =   1.000
                 Ionic strength (mol/kgw)  =   1.999e-04
                       Mass of water (kg)  =   1.000e+00
                 Total alkalinity (eq/kg)  =  -9.987e-05
                         Temperature (°C)  =  25.00
                  Electrical balance (eq)  =  -1.760e-17
 Percent error, 100*(Cat-|An|)/(Cat+|An|)  =  -0.00
                               Iterations  =  19 (138 overall)
                                  Total H  = 1.110125e+02
                                  Total O  = 5.550652e+01

----------------------------Distribution of species----------------------------

                                               Log       Log       Log    mole V
   Species          Molality    Activity  Molality  Activity     Gamma   cm³/mol

   H+              9.987e-05   9.829e-05    -4.001    -4.007    -0.007      0.00
   OH-             1.047e-10   1.030e-10    -9.980    -9.987    -0.007     -4.12
   H2O             5.551e+01   1.000e+00     1.744    -0.000     0.000     18.07
Cl            1.000e-04
   Cl-             1.000e-04   9.838e-05    -4.000    -4.007    -0.007     18.06
H(0)          0.000e+00
   H2              0.000e+00   0.000e+00   -42.797   -42.797     0.000     28.61
N(-3)         0.000e+00
   NH4+            0.000e+00   0.000e+00   -51.526   -51.533    -0.007     17.95
   NH3             0.000e+00   0.000e+00   -56.770   -56.770     0.000     24.42
N(0)          1.308e-07
   N2              6.541e-08   6.541e-08    -7.184    -7.184     0.000     29.29
N(3)          8.368e-16
   NO2-            8.368e-16   8.232e-16   -15.077   -15.084    -0.007     24.95
N(5)          9.987e-05
   NO3-            9.987e-05   9.825e-05    -4.001    -4.008    -0.007     29.47
Na            1.000e-04
   Na+             1.000e-04   9.839e-05    -4.000    -4.007    -0.007     -1.50
   NaOH            1.013e-24   1.013e-24   -23.994   -23.994     0.000     (0)  
O(0)          3.270e-07
   O2              1.635e-07   1.635e-07    -6.786    -6.786     0.000     30.40

------------------------------Saturation indices-------------------------------

  Phase               SI** log IAP   log K(298 K,   1 atm)

  H2(g)           -39.70    -42.80   -3.10  H2
  H2O(g)           -1.50     -0.00    1.50  H2O
  Halite           -9.58     -8.01    1.57  NaCl
  N2(g)            -4.01     -7.18   -3.18  N2
  NH3(g)          -58.57    -56.77    1.80  NH3
  O2(g)            -3.89     -6.79   -2.89  O2

**For a gas, SI = log10(fugacity). Fugacity = pressure * phi / 1 atm.
  For ideal gases, phi = 1.

Using solution 7.	

-----------------------------Solution composition------------------------------

	Elements           Molality       Moles

	Cl                1.000e-04   1.000e-04
	N                 1.000e-04   1.000e-04
	Na                1.000e-04   1.000e-04

----------------------------Description of solution----------------------------

                                       pH  =   4.007      Charge balance
                                       pe  =  15.816      Adjusted to redox equilibrium
      Specific Conductance (µS/cm,  25°C)  = 54
                          Density (g/cm³)  =   0.99705
                               Volume (L)  =   1.00297
                        Activity of water  =   1.000
                 Ionic strength (mol/kgw)  =   1.999e-04
                       Mass of water (kg)  =   1.000e+00
                 Total alkalinity (eq/kg)  =  -9.987e-05
                         Temperature (°C)  =  25.00
                  Electrical balance (eq)  =  -1.760e-17
 Percent error, 100*(Cat-|An|)/(Cat+|An|)  =  -0.00
                               Iterations  =  19 (157 overall)
                                  Total H  = 1.110125e+02
                                  Total O  = 5.550652e+01

----------------------------Distribution of species----------------------------

                                               Log       Log       Log    mole V
   Species          Molality    Activity  Molality  Activity     Gamma   cm³/mol

   H+              9.987e-05   9.829e-05    -4.001    -4.007    -0.007      0.00
   OH-             1.047e-10   1.030e-10    -9.980    -9.987    -0.007     -4.12
   H2O             5.551e+01   1.000e+00     1.744    -0.000     0.000     18.07
Cl            1.000e-04
   Cl-             1.000e-04   9.838e-05    -4.000    -4.007    -0.007     18.06
H(0)          0.000e+00
   H2              0.000e+00   0.000e+00   -42.797   -42.797     0.000     28.61
N(-3)         0.000e+00
   NH4+            0.000e+00   0.000e+00   -51.526   -51.533    -0.007     17.95
   NH3             0.000e+00   0.000e+00   -56.770   -56.770     0.000     24.42
N(0)          1.308e-07
   N2              6.541e-08   6.541e-08    -7.184    -7.184     0.000     29.29
N(3)          8.368e-16
   NO2-            8.368e-16   8.232e-16   -15.077   -15.084    -0.007     24.95
N(5)          9.987e-05
   NO3-            9.987e-05   9.825e-05    -4.001    -4.008    -0.007     29.47
Na            1.000e-04
   Na+             1.000e-04   9.839e-05    -4.000    -4.007    -0.007     -1.50
   NaOH            1.013e-24   1.013e-24   -23.994   -23.994     0.000     (0)  
O(0)          3.270e-07
   O2              1.635e-07   1.635e-07    -6.786    -6.786     0.000     30.40

------------------------------Saturation indices-------------------------------

  Phase               SI** log IAP   log K(298 K,   1 atm)

  H2(g)           -39.70    -42.80   -3.10  H2
  H2O(g)           -1.50     -0.00    1.50  H2O
  Halite           -9.58     -8.01    1.57  NaCl
  N2(g)            -4.01     -7.18   -3.18  N2
  NH3(g)          -58.57    -56.77    1.80  NH3
  O2(g)            -3.89     -6.79   -2.89  O2

**For a gas, SI = log10(fugacity). Fugacity = pressure * phi / 1 atm.
  For ideal gases, phi = 1.

Using solution 8.	

-----------------------------Solution composition------------------------------

	Elements           Molality       Moles

	Cl                1.000e-04   1.000e-04
	N                 1.000e-04   1.000e-04
	Na                1.000e-04   1.000e-04

----------------------------Description of solution----------------------------

                                       pH  =   4.007      Charge balance
                                       pe  =  15.816      Adjusted to redox equilibrium
      Specific Conductance (µS/cm,  25°C)  = 54
                          Density (g/cm³)  =   0.99705
                               Volume (L)  =   1.00297
                        Activity of water  =   1.000
                 Ionic strength (mol/kgw)  =   1.999e-04
                       Mass of water (kg)  =   1.000e+00
                 Total alkalinity (eq/kg)  =  -9.987e-05
                         Temperature (°C)  =  25.00
                  Electrical balance (eq)  =  -1.760e-17
 Percent error, 100*(Cat-|An|)/(Cat+|An|)  =  -0.00
                               Iterations  =  19 (176 overall)
                                  Total H  = 1.110125e+02
                                  Total O  = 5.550652e+01

----------------------------Distribution of species----------------------------

                                               Log       Log       Log    mole V
   Species          Molality    Activity  Molality  Activity     Gamma   cm³/mol

   H+              9.987e-05   9.829e-05    -4.001    -4.007    -0.007      0.00
   OH-             1.047e-10   1.030e-10    -9.980    -9.987    -0.007     -4.12
   H2O             5.551e+01   1.000e+00     1.744    -0.000     0.000     18.07
Cl            1.000e-04
   Cl-             1.000e-04   9.838e-05    -4.000    -4.007    -0.007     18.06
H(0)          0.000e+00
   H2              0.000e+00   0.000e+00   -42.797   -42.797     0.000     28.61
N(-3)         0.000e+00
   NH4+            0.000e+00   0.000e+00   -51.526   -51.533    -0.007     17.95
   NH3             0.000e+00   0.000e+00   -56.770   -56.770     0.000     24.42
N(0)          1.308e-07
   N2              6.541e-08   6.541e-08    -7.184    -7.184     0.000     29.29
N(3)          8.368e-16
   NO2-            8.368e-16   8.232e-16   -15.077   -15.084    -0.007     24.95
N(5)          9.987e-05
   NO3-            9.987e-05   9.825e-05    -4.001    -4.008    -0.007     29.47
Na            1.000e-04
   Na+             1.000e-04   9.839e-05    -4.000    -4.007    -0.007     -1.50
   NaOH            1.013e-24   1.013e-24   -23.994   -23.994     0.000     (0)  
O(0)          3.270e-07
   O2              1.635e-07   1.635e-07    -6.786    -6.786     0.000     30.40

------------------------------Saturation indices-------------------------------

  Phase               SI** log IAP   log K(298 K,   1 atm)

  H2(g)           -39.70    -42.80   -3.10  H2
  H2O(g)           -1.50     -0.00    1.50  H2O
  Halite           -9.58     -8.01    1.57  NaCl
  N2(g)            -4.01     -7.18   -3.18  N2
  NH3(g)          -58.57    -56.77    1.80  NH3
  O2(g)            -3.89     -6.79   -2.89  O2

**For a gas, SI = log10(fugacity). Fugacity = pressure * phi / 1 atm.
  For ideal gases, phi = 1.

Using solution 9.	

-----------------------------Solution composition------------------------------

	Elements           Molality       Moles

	Cl                1.000e-04   1.000e-04
	N                 1.000e-04   1.000e-04
	Na                1.000e-04   1.000e-04

----------------------------Description of solution----------------------------

                                       pH  =   4.007      Charge balance
                                       pe  =  15.816      Adjusted to redox equilibrium
      Specific Conductance (µS/cm,  25°C)  = 54
                          Density (g/cm³)  =   0.99705
                               Volume (L)  =   1.00297
                        Activity of water  =   1.000
                 Ionic strength (mol/kgw)  =   1.999e-04
                       Mass of water (kg)  =   1.000e+00
                 Total alkalinity (eq/kg)  =  -9.987e-05
                         Temperature (°C)  =  25.00
                  Electrical balance (eq)  =  -1.760e-17
 Percent error, 100*(Cat-|An|)/(Cat+|An|)  =  -0.00
                               Iterations  =  19 (195 overall)
                                  Total H  = 1.110125e+02
                                  Total O  = 5.550652e+01

----------------------------Distribution of species----------------------------

                                               Log       Log       Log    mole V
   Species          Molality    Activity  Molality  Activity     Gamma   cm³/mol

   H+              9.987e-05   9.829e-05    -4.001    -4.007    -0.007      0.00
   OH-             1.047e-10   1.030e-10    -9.980    -9.987    -0.007     -4.12
   H2O             5.551e+01   1.000e+00     1.744    -0.000     0.000     18.07
Cl            1.000e-04
   Cl-             1.000e-04   9.838e-05    -4.000    -4.007    -0.007     18.06
H(0)          0.000e+00
   H2              0.000e+00   0.000e+00   -42.797   -42.797     0.000     28.61
N(-3)         0.000e+00
   NH4+            0.000e+00   0.000e+00   -51.526   -51.533    -0.007     17.95
   NH3             0.000e+00   0.000e+00   -56.770   -56.770     0.000     24.42
N(0)          1.308e-07
   N2              6.541e-08   6.541e-08    -7.184    -7.184     0.000     29.29
N(3)          8.368e-16
   NO2-            8.368e-16   8.232e-16   -15.077   -15.084    -0.007     24.95
N(5)          9.987e-05
   NO3-            9.987e-05   9.825e-05    -4.001    -4.008    -0.007     29.47
Na            1.000e-04
   Na+             1.000e-04   9.839e-05    -4.000    -4.007    -0.007     -1.50
   NaOH            1.013e-24   1.013e-24   -23.994   -23.994     0.000     (0)  
O(0)          3.270e-07
   O2              1.635e-07   1.635e-07    -6.786    -6.786     0.000     30.40

------------------------------Saturation indices-------------------------------

  Phase               SI** log IAP   log K(298 K,   1 atm)

  H2(g)           -39.70    -42.80   -3.10  H2
  H2O(g)           -1.50     -0.00    1.50  H2O
  Halite           -9.58     -8.01    1.57  NaCl
  N2(g)            -4.01     -7.18   -3.18  N2
  NH3(g)          -58.57    -56.77    1.80  NH3
  O2(g)            -3.89     -6.79   -2.89  O2

**For a gas, SI = log10(fugacity). Fugacity = pressure * phi / 1 atm.
  For ideal gases, phi = 1.

Using solution 10.	

-----------------------------Solution composition------------------------------

	Elements           Molality       Moles

	Cl                1.000e-04   1.000e-04
	N                 1.000e-04   1.000e-04
	Na                1.000e-04   1.000e-04

----------------------------Description of solution----------------------------

                                       pH  =   4.007      Charge balance
                                       pe  =  15.816      Adjusted to redox equilibrium
      Specific Conductance (µS/cm,  25°C)  = 54
                          Density (g/cm³)  =   0.99705
                               Volume (L)  =   1.00297
                        Activity of water  =   1.000
                 Ionic strength (mol/kgw)  =   1.999e-04
                       Mass of water (kg)  =   1.000e+00
                 Total alkalinity (eq/kg)  =  -9.987e-05
                         Temperature (°C)  =  25.00
                  Electrical balance (eq)  =  -1.760e-17
 Percent error, 100*(Cat-|An|)/(Cat+|An|)  =  -0.00
                               Iterations  =  19 (214 overall)
                                  Total H  = 1.110125e+02
                                  Total O  = 5.550652e+01

----------------------------Distribution of species----------------------------

                                               Log       Log       Log    mole V
   Species          Molality    Activity  Molality  Activity     Gamma   cm³/mol

   H+              9.987e-05   9.829e-05    -4.001    -4.007    -0.007      0.00
   OH-             1.047e-10   1.030e-10    -9.980    -9.987    -0.007     -4.12
   H2O             5.551e+01   1.000e+00     1.744    -0.000     0.000     18.07
Cl            1.000e-04
   Cl-             1.000e-04   9.838e-05    -4.000    -4.007    -0.007     18.06
H(0)          0.000e+00
   H2              0.000e+00   0.000e+00   -42.797   -42.797     0.000     28.61
N(-3)         0.000e+00
   NH4+            0.000e+00   0.000e+00   -51.526   -51.533    -0.007     17.95
   NH3             0.000e+00   0.000e+00   -56.770   -56.770     0.000     24.42
N(0)          1.308e-07
   N2              6.541e-08   6.541e-08    -7.184    -7.184     0.000     29.29
N(3)          8.368e-16
   NO2-            8.368e-16   8.232e-16   -15.077   -15.084    -0.007     24.95
N(5)          9.987e-05
   NO3-            9.987e-05   9.825e-05    -4.001    -4.008    -0.007     29.47
Na            1.000e-04
   Na+             1.000e-04   9.839e-05    -4.000    -4.007    -0.007     -1.50
   NaOH            1.013e-24   1.013e-24   -23.994   -23.994     0.000     (0)  
O(0)          3.270e-07
   O2              1.635e-07   1.635e-07    -6.786    -6.786     0.000     30.40

------------------------------Saturation indices-------------------------------

  Phase               SI** log IAP   log K(298 K,   1 atm)

  H2(g)           -39.70    -42.80   -3.10  H2
  H2O(g)           -1.50     -0.00    1.50  H2O
  Halite           -9.58     -8.01    1.57  NaCl
  N2(g)            -4.01     -7.18   -3.18  N2
  NH3(g)          -58.57    -56.77    1.80  NH3
  O2(g)            -3.89     -6.79   -2.89  O2

**For a gas, SI = log10(fugacity). Fugacity = pressure * phi / 1 atm.
  For ideal gases, phi = 1.

Using solution 11.	

-----------------------------Solution composition------------------------------

	Elements           Molality       Moles

	Cl                1.000e-04   1.000e-04
	N                 1.000e-04   1.000e-04
	Na                1.000e-04   1.000e-04

----------------------------Description of solution----------------------------

                                       pH  =   4.007      Charge balance
                                       pe  =  15.816      Adjusted to redox equilibrium
      Specific Conductance (µS/cm,  25°C)  = 54
                          Density (g/cm³)  =   0.99705
                               Volume (L)  =   1.00297
                        Activity of water  =   1.000
                 Ionic strength (mol/kgw)  =   1.999e-04
                       Mass of water (kg)  =   1.000e+00
                 Total alkalinity (eq/kg)  =  -9.987e-05
                         Temperature (°C)  =  25.00
                  Electrical balance (eq)  =  -1.760e-17
 Percent error, 100*(Cat-|An|)/(Cat+|An|)  =  -0.00
                               Iterations  =  19 (233 overall)
                                  Total H  = 1.110125e+02
                                  Total O  = 5.550652e+01

----------------------------Distribution of species----------------------------

                                               Log       Log       Log    mole V
   Species          Molality    Activity  Molality  Activity     Gamma   cm³/mol

   H+              9.987e-05   9.829e-05    -4.001    -4.007    -0.007      0.00
   OH-             1.047e-10   1.030e-10    -9.980    -9.987    -0.007     -4.12
   H2O             5.551e+01   1.000e+00     1.744    -0.000     0.000     18.07
Cl            1.000e-04
   Cl-             1.000e-04   9.838e-05    -4.000    -4.007    -0.007     18.06
H(0)          0.000e+00
   H2              0.000e+00   0.000e+00   -42.797   -42.797     0.000     28.61
N(-3)         0.000e+00
   NH4+            0.000e+00   0.000e+00   -51.526   -51.533    -0.007     17.95
   NH3             0.000e+00   0.000e+00   -56.770   -56.770     0.000     24.42
N(0)          1.308e-07
   N2              6.541e-08   6.541e-08    -7.184    -7.184     0.000     29.29
N(3)          8.368e-16
   NO2-            8.368e-16   8.232e-16   -15.077   -15.084    -0.007     24.95
N(5)          9.987e-05
   NO3-            9.987e-05   9.825e-05    -4.001    -4.008    -0.007     29.47
Na            1.000e-04
   Na+             1.000e-04   9.839e-05    -4.000    -4.007    -0.007     -1.50
   NaOH            1.013e-24   1.013e-24   -23.994   -23.994     0.000     (0)  
O(0)          3.270e-07
   O2              1.635e-07   1.635e-07    -6.786    -6.786     0.000     30.40

------------------------------Saturation indices-------------------------------

  Phase               SI** log IAP   log K(298 K,   1 atm)

  H2(g)           -39.70    -42.80   -3.10  H2
  H2O(g)           -1.50     -0.00    1.50  H2O
  Halite           -9.58     -8.01    1.57  NaCl
  N2(g)            -4.01     -7.18   -3.18  N2
  NH3(g)          -58.57    -56.77    1.80  NH3
  O2(g)            -3.89     -6.79   -2.89  O2

**For a gas, SI = log10(fugacity). Fugacity = pressure * phi / 1 atm.
  For ideal gases, phi = 1.

Transport step   1. Multicomponent diffusion run  46.

Using solution 0.	Solution after simulation 1.

-----------------------------Solution composition------------------------------

	Elements           Molality       Moles

	Cl                1.000e-04   1.000e-04
	N                 1.000e-06   1.000e-06
	Na                1.000e-04   1.000e-04

----------------------------Description of solution----------------------------

                                       pH  =   6.001      Charge balance
                                       pe  =  13.252      Adjusted to redox equilibrium
      Specific Conductance (µS/cm,  25°C)  = 12
                          Density (g/cm³)  =   0.99705
                               Volume (L)  =   1.00297
                        Activity of water  =   1.000
                 Ionic strength (mol/kgw)  =   1.010e-04
                       Mass of water (kg)  =   1.000e+00
                 Total alkalinity (eq/kg)  =  -9.993e-07
                         Temperature (°C)  =  25.00
                  Electrical balance (eq)  =  -1.134e-14
 Percent error, 100*(Cat-|An|)/(Cat+|An|)  =  -0.00
                               Iterations  =   1
                                  Total H  = 1.110124e+02
                                  Total O  = 5.550622e+01

----------------------------Distribution of species----------------------------

                                               Log       Log       Log    mole V
   Species          Molality    Activity  Molality  Activity     Gamma   cm³/mol

   H+              1.010e-06   9.981e-07    -5.996    -6.001    -0.005      0.00
   OH-             1.026e-08   1.014e-08    -7.989    -7.994    -0.005     -4.13
   H2O             5.551e+01   1.000e+00     1.744    -0.000     0.000     18.07
Cl            1.000e-04
   Cl-             1.000e-04   9.884e-05    -4.000    -4.005    -0.005     18.05
H(0)          0.000e+00
   H2              0.000e+00   0.000e+00   -41.657   -41.657     0.000     28.61
N(-3)         0.000e+00
   NH4+            0.000e+00   0.000e+00   -52.951   -52.956    -0.005     17.94
   NH3             0.000e+00   0.000e+00   -56.199   -56.199     0.000     24.42
N(0)          6.856e-10
   N2              3.428e-10   3.428e-10    -9.465    -9.465     0.000     29.29
N(3)          1.157e-16
   NO2-            1.157e-16   1.143e-16   -15.937   -15.942    -0.005     24.95
N(5)          9.993e-07
   NO3-            9.993e-07   9.877e-07    -6.000    -6.005    -0.005     29.47
Na            1.000e-04
   Na+             1.000e-04   9.884e-05    -4.000    -4.005    -0.005     -1.51
   NaOH            1.002e-22   1.002e-22   -21.999   -21.999     0.000     (0)  
O(0)          1.714e-09
   O2              8.570e-10   8.570e-10    -9.067    -9.067     0.000     30.40

------------------------------Saturation indices-------------------------------

  Phase               SI** log IAP   log K(298 K,   1 atm)

  H2(g)           -38.56    -41.66   -3.10  H2
  H2O(g)           -1.50     -0.00    1.50  H2O
  Halite           -9.58     -8.01    1.57  NaCl
  N2(g)            -6.29     -9.46   -3.18  N2
  NH3(g)          -58.00    -56.20    1.80  NH3
  O2(g)            -6.17     -9.07   -2.89  O2

**For a gas, SI = log10(fugacity). Fugacity = pressure * phi / 1 atm.
  For ideal gases, phi = 1.

Using mix 1.	

Mixture 1.	

	  0.000e+00 Solution 0	Solution after simulation 1.                           
	  1.000e+00 Solution 1	Solution after simulation 1.                           
	  0.000e+00 Solution 2	Solution after simulation 1.                           

-----------------------------Solution composition------------------------------

	Elements           Molality       Moles

	Cl                9.289e-05   9.289e-05
	N                 2.233e-05   2.233e-05
	Na                1.061e-04   1.061e-04

----------------------------Description of solution----------------------------

                                       pH  =   5.048      Charge balance
                                       pe  =  14.532      Adjusted to redox equilibrium
      Specific Conductance (µS/cm,  25°C)  = 17
                          Density (g/cm³)  =   0.99705
                               Volume (L)  =   1.00297
                        Activity of water  =   1.000
                 Ionic strength (mol/kgw)  =   1.152e-04
                       Mass of water (kg)  =   1.000e+00
                 Total alkalinity (eq/kg)  =  -9.062e-06
                         Temperature (°C)  =  25.00
                  Electrical balance (eq)  =  -3.092e-13
 Percent error, 100*(Cat-|An|)/(Cat+|An|)  =  -0.00
                               Iterations  =   2
                                  Total H  = 1.110124e+02
                                  Total O  = 5.550628e+01

----------------------------Distribution of species----------------------------

                                               Log       Log       Log    mole V
   Species          Molality    Activity  Molality  Activity     Gamma   cm³/mol

   H+              9.063e-06   8.953e-06    -5.043    -5.048    -0.005      0.00
   OH-             1.145e-09   1.131e-09    -8.941    -8.947    -0.005     -4.13
   H2O             5.551e+01   1.000e+00     1.744    -0.000     0.000     18.07
Cl            9.289e-05
   Cl-             9.289e-05   9.175e-05    -4.032    -4.037    -0.005     18.05
H(0)          0.000e+00
   H2              0.000e+00   0.000e+00   -42.310   -42.310     0.000     28.61
N(-3)         0.000e+00
   NH4+            0.000e+00   0.000e+00   -52.312   -52.317    -0.005     17.94
   NH3             0.000e+00   0.000e+00   -56.513   -56.513     0.000     24.42
N(0)          1.478e-08
   N2              7.388e-09   7.388e-09    -8.131    -8.131     0.000     29.29
N(3)          5.731e-16
   NO2-            5.731e-16   5.660e-16   -15.242   -15.247    -0.005     24.95
N(5)          2.231e-05
   NO3-            2.231e-05   2.204e-05    -4.651    -4.657    -0.005     29.47
Na            1.061e-04
   Na+             1.061e-04   1.048e-04    -3.974    -3.979    -0.005     -1.51
   NaOH            1.185e-23   1.185e-23   -22.926   -22.926     0.000     (0)  
O(0)          3.481e-08
   O2              1.740e-08   1.740e-08    -7.759    -7.759     0.000     30.40

------------------------------Saturation indices-------------------------------

  Phase               SI** log IAP   log K(298 K,   1 atm)

  H2(g)           -39.21    -42.31   -3.10  H2
  H2O(g)           -1.50     -0.00    1.50  H2O
  Halite           -9.59     -8.02    1.57  NaCl
  N2(g)            -4.96     -8.13   -3.18  N2
  NH3(g)          -58.31    -56.51    1.80  NH3
  O2(g)            -4.87     -7.76   -2.89  O2

**For a gas, SI = log10(fugacity). Fugacity = pressure * phi / 1 atm.
  For ideal gases, phi = 1.

Using mix 2.	

Mixture 2.	

	  0.000e+00 Solution 1	Solution after simulation 1.                           
	  1.000e+00 Solution 2	Solution after simulation 1.                           
	  0.000e+00 Solution 3	Solution after simulation 1.                           

-----------------------------Solution composition------------------------------

	Elements           Molality       Moles

	Cl                8.632e-05   8.632e-05
	N                 5.421e-05   5.421e-05
	Na                1.128e-04   1.128e-04

----------------------------Description of solution----------------------------

                                       pH  =   4.564      Charge balance
                                       pe  =  15.140      Adjusted to redox equilibrium
      Specific Conductance (µS/cm,  25°C)  = 25
                          Density (g/cm³)  =   0.99705
                               Volume (L)  =   1.00297
                        Activity of water  =   1.000
                 Ionic strength (mol/kgw)  =   1.405e-04
                       Mass of water (kg)  =   1.000e+00
                 Total alkalinity (eq/kg)  =  -2.766e-05
                         Temperature (°C)  =  25.00
                  Electrical balance (eq)  =   8.723e-12
 Percent error, 100*(Cat-|An|)/(Cat+|An|)  =   0.00
                               Iterations  =   2
                                  Total H  = 1.110125e+02
                                  Total O  = 5.550638e+01

----------------------------Distribution of species----------------------------

                                               Log       Log       Log    mole V
   Species          Molality    Activity  Molality  Activity     Gamma   cm³/mol

   H+              2.766e-05   2.729e-05    -4.558    -4.564    -0.006      0.00
   OH-             3.761e-10   3.709e-10    -9.425    -9.431    -0.006     -4.13
   H2O             5.551e+01   1.000e+00     1.744    -0.000     0.000     18.07
Cl            8.632e-05
   Cl-             8.632e-05   8.515e-05    -4.064    -4.070    -0.006     18.06
H(0)          0.000e+00
   H2              0.000e+00   0.000e+00   -42.558   -42.558     0.000     28.61
N(-3)         0.000e+00
   NH4+            0.000e+00   0.000e+00   -51.950   -51.956    -0.006     17.95
   NH3             0.000e+00   0.000e+00   -56.636   -56.636     0.000     24.42
N(0)          4.648e-08
   N2              2.324e-08   2.324e-08    -7.634    -7.634     0.000     29.29
N(3)          7.861e-16
   NO2-            7.861e-16   7.754e-16   -15.105   -15.110    -0.006     24.95
N(5)          5.417e-05
   NO3-            5.417e-05   5.343e-05    -4.266    -4.272    -0.006     29.47
Na            1.128e-04
   Na+             1.128e-04   1.113e-04    -3.948    -3.954    -0.006     -1.51
   NaOH            4.128e-24   4.128e-24   -23.384   -23.384     0.000     (0)  
O(0)          1.090e-07
   O2              5.451e-08   5.451e-08    -7.264    -7.264     0.000     30.40

------------------------------Saturation indices-------------------------------

  Phase               SI** log IAP   log K(298 K,   1 atm)

  H2(g)           -39.46    -42.56   -3.10  H2
  H2O(g)           -1.50     -0.00    1.50  H2O
  Halite           -9.59     -8.02    1.57  NaCl
  N2(g)            -4.46     -7.63   -3.18  N2
  NH3(g)          -58.43    -56.64    1.80  NH3
  O2(g)            -4.37     -7.26   -2.89  O2

**For a gas, SI = log10(fugacity). Fugacity = pressure * phi / 1 atm.
  For ideal gases, phi = 1.

Using mix 3.	

Mixture 3.	

	  0.000e+00 Solution 2	Solution after simulation 1.                           
	  1.000e+00 Solution 3	Solution after simulation 1.                           
	  0.000e+00 Solution 4	Solution after simulation 1.                           

-----------------------------Solution composition------------------------------

	Elements           Molality       Moles

	Cl                8.620e-05   8.620e-05
	N                 7.381e-05   7.381e-05
	Na                1.126e-04   1.126e-04

----------------------------Description of solution----------------------------

                                       pH  =   4.331      Charge balance
                                       pe  =  15.426      Adjusted to redox equilibrium
      Specific Conductance (µS/cm,  25°C)  = 33
                          Density (g/cm³)  =   0.99705
                               Volume (L)  =   1.00297
                        Activity of water  =   1.000
                 Ionic strength (mol/kgw)  =   1.599e-04
                       Mass of water (kg)  =   1.000e+00
                 Total alkalinity (eq/kg)  =  -4.733e-05
                         Temperature (°C)  =  25.00
                  Electrical balance (eq)  =   1.794e-11
 Percent error, 100*(Cat-|An|)/(Cat+|An|)  =   0.00
                               Iterations  =   2
                                  Total H  = 1.110125e+02
                                  Total O  = 5.550644e+01

----------------------------Distribution of species----------------------------

                                               Log       Log       Log    mole V
   Species          Molality    Activity  Molality  Activity     Gamma   cm³/mol

   H+              4.733e-05   4.665e-05    -4.325    -4.331    -0.006      0.00
   OH-             2.201e-10   2.169e-10    -9.657    -9.664    -0.006     -4.13
   H2O             5.551e+01   1.000e+00     1.744    -0.000     0.000     18.07
Cl            8.620e-05
   Cl-             8.620e-05   8.495e-05    -4.065    -4.071    -0.006     18.06
H(0)          0.000e+00
   H2              0.000e+00   0.000e+00   -42.664   -42.664     0.000     28.61
N(-3)         0.000e+00
   NH4+            0.000e+00   0.000e+00   -51.772   -51.779    -0.006     17.95
   NH3             0.000e+00   0.000e+00   -56.692   -56.692     0.000     24.42
N(0)          7.462e-08
   N2              3.731e-08   3.731e-08    -7.428    -7.428     0.000     29.29
N(3)          8.394e-16
   NO2-            8.394e-16   8.272e-16   -15.076   -15.082    -0.006     24.95
N(5)          7.374e-05
   NO3-            7.374e-05   7.266e-05    -4.132    -4.139    -0.006     29.47
Na            1.126e-04
   Na+             1.126e-04   1.110e-04    -3.948    -3.955    -0.006     -1.50
   NaOH            2.408e-24   2.408e-24   -23.618   -23.618     0.000     (0)  
O(0)          1.772e-07
   O2              8.860e-08   8.860e-08    -7.053    -7.053     0.000     30.40

------------------------------Saturation indices-------------------------------

  Phase               SI** log IAP   log K(298 K,   1 atm)

  H2(g)           -39.56    -42.66   -3.10  H2
  H2O(g)           -1.50     -0.00    1.50  H2O
  Halite           -9.60     -8.03    1.57  NaCl
  N2(g)            -4.25     -7.43   -3.18  N2
  NH3(g)          -58.49    -56.69    1.80  NH3
  O2(g)            -4.16     -7.05   -2.89  O2

**For a gas, SI = log10(fugacity). Fugacity = pressure * phi / 1 atm.
  For ideal gases, phi = 1.

Using mix 4.	

Mixture 4.	

	  0.000e+00 Solution 3	Solution after simulation 1.                           
	  1.000e+00 Solution 4	Solution after simulation 1.                           
	  0.000e+00 Solution 5	Solution after simulation 1.                           

-----------------------------Solution composition------------------------------

	Elements           Molality       Moles

	Cl                8.913e-05   8.913e-05
	N                 8.522e-05   8.522e-05
	Na                1.090e-04   1.090e-04

----------------------------Description of solution----------------------------

                                       pH  =   4.192      Charge balance
                                       pe  =  15.595      Adjusted to redox equilibrium
      Specific Conductance (µS/cm,  25°C)  = 40
                          Density (g/cm³)  =   0.99705
                               Volume (L)  =   1.00297
                        Activity of water  =   1.000
                 Ionic strength (mol/kgw)  =   1.743e-04
                       Mass of water (kg)  =   1.000e+00
                 Total alkalinity (eq/kg)  =  -6.530e-05
                         Temperature (°C)  =  25.00
                  Electrical balance (eq)  =   5.770e-12
 Percent error, 100*(Cat-|An|)/(Cat+|An|)  =   0.00
                               Iterations  =   2
                                  Total H  = 1.110125e+02
                                  Total O  = 5.550647e+01

----------------------------Distribution of species----------------------------

                                               Log       Log       Log    mole V
   Species          Molality    Activity  Molality  Activity     Gamma   cm³/mol

   H+              6.530e-05   6.433e-05    -4.185    -4.192    -0.006      0.00
   OH-             1.597e-10   1.573e-10    -9.797    -9.803    -0.007     -4.13
   H2O             5.551e+01   1.000e+00     1.744    -0.000     0.000     18.07
Cl            8.913e-05
   Cl-             8.913e-05   8.779e-05    -4.050    -4.057    -0.007     18.06
H(0)          0.000e+00
   H2              0.000e+00   0.000e+00   -42.722   -42.722     0.000     28.61
N(-3)         0.000e+00
   NH4+            0.000e+00   0.000e+00   -51.665   -51.672    -0.007     17.95
   NH3             0.000e+00   0.000e+00   -56.725   -56.725     0.000     24.42
N(0)          9.620e-08
   N2              4.810e-08   4.810e-08    -7.318    -7.318     0.000     29.29
N(3)          8.467e-16
   NO2-            8.467e-16   8.339e-16   -15.072   -15.079    -0.007     24.95
N(5)          8.513e-05
   NO3-            8.513e-05   8.383e-05    -4.070    -4.077    -0.007     29.47
Na            1.090e-04
   Na+             1.090e-04   1.073e-04    -3.963    -3.969    -0.007     -1.50
   NaOH            1.688e-24   1.688e-24   -23.773   -23.773     0.000     (0)  
O(0)          2.321e-07
   O2              1.160e-07   1.160e-07    -6.935    -6.935     0.000     30.40

------------------------------Saturation indices-------------------------------

  Phase               SI** log IAP   log K(298 K,   1 atm)

  H2(g)           -39.62    -42.72   -3.10  H2
  H2O(g)           -1.50     -0.00    1.50  H2O
  Halite           -9.60     -8.03    1.57  NaCl
  N2(g)            -4.14     -7.32   -3.18  N2
  NH3(g)          -58.52    -56.72    1.80  NH3
  O2(g)            -4.04     -6.94   -2.89  O2

**For a gas, SI = log10(fugacity). Fugacity = pressure * phi / 1 atm.
  For ideal gases, phi = 1.

Using mix 5.	

Mixture 5.	

	  0.000e+00 Solution 4	Solution after simulation 1.                           
	  1.000e+00 Solution 5	Solution after simulation 1.                           
	  0.000e+00 Solution 6	Solution after simulation 1.                           

-----------------------------Solution composition------------------------------

	Elements           Molality       Moles

	Cl                9.279e-05   9.279e-05
	N                 9.191e-05   9.191e-05
	Na                1.052e-04   1.052e-04

----------------------------Description of solution----------------------------

                                       pH  =   4.107      Charge balance
                                       pe  =  15.696      Adjusted to redox equilibrium
      Specific Conductance (µS/cm,  25°C)  = 46
                          Density (g/cm³)  =   0.99705
                               Volume (L)  =   1.00297
                        Activity of water  =   1.000
                 Ionic strength (mol/kgw)  =   1.846e-04
                       Mass of water (kg)  =   1.000e+00
                 Total alkalinity (eq/kg)  =  -7.939e-05
                         Temperature (°C)  =  25.00
                  Electrical balance (eq)  =   1.492e-12
 Percent error, 100*(Cat-|An|)/(Cat+|An|)  =   0.00
                               Iterations  =   2
                                  Total H  = 1.110125e+02
                                  Total O  = 5.550649e+01

----------------------------Distribution of species----------------------------

                                               Log       Log       Log    mole V
   Species          Molality    Activity  Molality  Activity     Gamma   cm³/mol

   H+              7.939e-05   7.818e-05    -4.100    -4.107    -0.007      0.00
   OH-             1.315e-10   1.295e-10    -9.881    -9.888    -0.007     -4.13
   H2O             5.551e+01   1.000e+00     1.744    -0.000     0.000     18.07
Cl            9.279e-05
   Cl-             9.279e-05   9.135e-05    -4.032    -4.039    -0.007     18.06
H(0)          0.000e+00
   H2              0.000e+00   0.000e+00   -42.757   -42.757     0.000     28.61
N(-3)         0.000e+00
   NH4+            0.000e+00   0.000e+00   -51.601   -51.607    -0.007     17.95
   NH3             0.000e+00   0.000e+00   -56.745   -56.745     0.000     24.42
N(0)          1.112e-07
   N2              5.558e-08   5.558e-08    -7.255    -7.255     0.000     29.29
N(3)          8.437e-16
   NO2-            8.437e-16   8.305e-16   -15.074   -15.081    -0.007     24.95
N(5)          9.180e-05
   NO3-            9.180e-05   9.036e-05    -4.037    -4.044    -0.007     29.47
Na            1.052e-04
   Na+             1.052e-04   1.036e-04    -3.978    -3.985    -0.007     -1.50
   NaOH            1.341e-24   1.341e-24   -23.873   -23.873     0.000     (0)  
O(0)          2.718e-07
   O2              1.359e-07   1.359e-07    -6.867    -6.867     0.000     30.40

------------------------------Saturation indices-------------------------------

  Phase               SI** log IAP   log K(298 K,   1 atm)

  H2(g)           -39.66    -42.76   -3.10  H2
  H2O(g)           -1.50     -0.00    1.50  H2O
  Halite           -9.59     -8.02    1.57  NaCl
  N2(g)            -4.08     -7.26   -3.18  N2
  NH3(g)          -58.54    -56.74    1.80  NH3
  O2(g)            -3.97     -6.87   -2.89  O2

**For a gas, SI = log10(fugacity). Fugacity = pressure * phi / 1 atm.
  For ideal gases, phi = 1.

Using mix 6.	

Mixture 6.	

	  0.000e+00 Solution 5	Solution after simulation 1.                           
	  1.000e+00 Solution 6	Solution after simulation 1.                           
	  0.000e+00 Solution 7	Solution after simulation 1.                           

-----------------------------Solution composition------------------------------

	Elements           Molality       Moles

	Cl                9.585e-05   9.585e-05
	N                 9.582e-05   9.582e-05
	Na                1.026e-04   1.026e-04

----------------------------Description of solution----------------------------

                                       pH  =   4.058      Charge balance
                                       pe  =  15.755      Adjusted to redox equilibrium
      Specific Conductance (µS/cm,  25°C)  = 50
                          Density (g/cm³)  =   0.99705
                               Volume (L)  =   1.00297
                        Activity of water  =   1.000
                 Ionic strength (mol/kgw)  =   1.916e-04
                       Mass of water (kg)  =   1.000e+00
                 Total alkalinity (eq/kg)  =  -8.891e-05
                         Temperature (°C)  =  25.00
                  Electrical balance (eq)  =   1.675e-12
 Percent error, 100*(Cat-|An|)/(Cat+|An|)  =   0.00
                               Iterations  =   2
                                  Total H  = 1.110125e+02
                                  Total O  = 5.550650e+01

----------------------------Distribution of species----------------------------

                                               Log       Log       Log    mole V
   Species          Molality    Activity  Molality  Activity     Gamma   cm³/mol

   H+              8.891e-05   8.753e-05    -4.051    -4.058    -0.007      0.00
   OH-             1.175e-10   1.156e-10    -9.930    -9.937    -0.007     -4.13
   H2O             5.551e+01   1.000e+00     1.744    -0.000     0.000     18.07
Cl            9.585e-05
   Cl-             9.585e-05   9.433e-05    -4.018    -4.025    -0.007     18.06
H(0)          0.000e+00
   H2              0.000e+00   0.000e+00   -42.776   -42.776     0.000     28.61
N(-3)         0.000e+00
   NH4+            0.000e+00   0.000e+00   -51.563   -51.570    -0.007     17.95
   NH3             0.000e+00   0.000e+00   -56.757   -56.757     0.000     24.42
N(0)          1.206e-07
   N2              6.028e-08   6.028e-08    -7.220    -7.220     0.000     29.29
N(3)          8.404e-16
   NO2-            8.404e-16   8.271e-16   -15.075   -15.082    -0.007     24.95
N(5)          9.570e-05
   NO3-            9.570e-05   9.418e-05    -4.019    -4.026    -0.007     29.47
Na            1.026e-04
   Na+             1.026e-04   1.010e-04    -3.989    -3.996    -0.007     -1.50
   NaOH            1.168e-24   1.168e-24   -23.932   -23.932     0.000     (0)  
O(0)          2.977e-07
   O2              1.489e-07   1.489e-07    -6.827    -6.827     0.000     30.40

------------------------------Saturation indices-------------------------------

  Phase               SI** log IAP   log K(298 K,   1 atm)

  H2(g)           -39.68    -42.78   -3.10  H2
  H2O(g)           -1.50     -0.00    1.50  H2O
  Halite           -9.59     -8.02    1.57  NaCl
  N2(g)            -4.04     -7.22   -3.18  N2
  NH3(g)          -58.55    -56.76    1.80  NH3
  O2(g)            -3.93     -6.83   -2.89  O2

**For a gas, SI = log10(fugacity). Fugacity = pressure * phi / 1 atm.
  For ideal gases, phi = 1.

Using mix 7.	

Mixture 7.	

	  0.000e+00 Solution 6	Solution after simulation 1.                           
	  1.000e+00 Solution 7	Solution after simulation 1.                           
	  0.000e+00 Solution 8	Solution after simulation 1.                           

-----------------------------Solution composition------------------------------

	Elements           Molality       Moles

	Cl                9.789e-05   9.789e-05
	N                 9.800e-05   9.800e-05
	Na                1.012e-04   1.012e-04

----------------------------Description of solution----------------------------

                                       pH  =   4.031      Charge balance
                                       pe  =  15.787      Adjusted to redox equilibrium
      Specific Conductance (µS/cm,  25°C)  = 52
                          Density (g/cm³)  =   0.99705
                               Volume (L)  =   1.00297
                        Activity of water  =   1.000
                 Ionic strength (mol/kgw)  =   1.958e-04
                       Mass of water (kg)  =   1.000e+00
                 Total alkalinity (eq/kg)  =  -9.454e-05
                         Temperature (°C)  =  25.00
                  Electrical balance (eq)  =   2.289e-12
 Percent error, 100*(Cat-|An|)/(Cat+|An|)  =   0.00
                               Iterations  =   2
                                  Total H  = 1.110125e+02
                                  Total O  = 5.550651e+01

----------------------------Distribution of species----------------------------

                                               Log       Log       Log    mole V
   Species          Molality    Activity  Molality  Activity     Gamma   cm³/mol

   H+              9.454e-05   9.306e-05    -4.024    -4.031    -0.007      0.00
   OH-             1.105e-10   1.088e-10    -9.956    -9.964    -0.007     -4.12
   H2O             5.551e+01   1.000e+00     1.744    -0.000     0.000     18.07
Cl            9.789e-05
   Cl-             9.789e-05   9.632e-05    -4.009    -4.016    -0.007     18.06
H(0)          0.000e+00
   H2              0.000e+00   0.000e+00   -42.787   -42.787     0.000     28.61
N(-3)         0.000e+00
   NH4+            0.000e+00   0.000e+00   -51.543   -51.550    -0.007     17.95
   NH3             0.000e+00   0.000e+00   -56.763   -56.763     0.000     24.42
N(0)          1.259e-07
   N2              6.295e-08   6.295e-08    -7.201    -7.201     0.000     29.29
N(3)          8.385e-16
   NO2-            8.385e-16   8.250e-16   -15.076   -15.084    -0.007     24.95
N(5)          9.787e-05
   NO3-            9.787e-05   9.630e-05    -4.009    -4.016    -0.007     29.47
Na            1.012e-04
   Na+             1.012e-04   9.961e-05    -3.995    -4.002    -0.007     -1.50
   NaOH            1.083e-24   1.083e-24   -23.965   -23.965     0.000     (0)  
O(0)          3.128e-07
   O2              1.564e-07   1.564e-07    -6.806    -6.806     0.000     30.40

------------------------------Saturation indices-------------------------------

  Phase               SI** log IAP   log K(298 K,   1 atm)

  H2(g)           -39.69    -42.79   -3.10  H2
  H2O(g)           -1.50     -0.00    1.50  H2O
  Halite           -9.59     -8.02    1.57  NaCl
  N2(g)            -4.03     -7.20   -3.18  N2
  NH3(g)          -58.56    -56.76    1.80  NH3
  O2(g)            -3.91     -6.81   -2.89  O2

**For a gas, SI = log10(fugacity). Fugacity = pressure * phi / 1 atm.
  For ideal gases, phi = 1.

Using mix 8.	

Mixture 8.	

	  0.000e+00 Solution 7	Solution after simulation 1.                           
	  1.000e+00 Solution 8	Solution after simulation 1.                           
	  0.000e+00 Solution 9	Solution after simulation 1.                           

-----------------------------Solution composition------------------------------

	Elements           Molality       Moles

	Cl                9.904e-05   9.904e-05
	N                 9.911e-05   9.911e-05
	Na                1.005e-04   1.005e-04

----------------------------Description of solution----------------------------

                                       pH  =   4.018      Charge balance
                                       pe  =  15.803      Adjusted to redox equilibrium
      Specific Conductance (µS/cm,  25°C)  = 53
                          Density (g/cm³)  =   0.99705
                               Volume (L)  =   1.00297
                        Activity of water  =   1.000
                 Ionic strength (mol/kgw)  =   1.980e-04
                       Mass of water (kg)  =   1.000e+00
                 Total alkalinity (eq/kg)  =  -9.750e-05
                         Temperature (°C)  =  25.00
                  Electrical balance (eq)  =   4.476e-12
 Percent error, 100*(Cat-|An|)/(Cat+|An|)  =   0.00
                               Iterations  =   2
                                  Total H  = 1.110125e+02
                                  Total O  = 5.550651e+01

----------------------------Distribution of species----------------------------

                                               Log       Log       Log    mole V
   Species          Molality    Activity  Molality  Activity     Gamma   cm³/mol

   H+              9.750e-05   9.596e-05    -4.011    -4.018    -0.007      0.00
   OH-             1.072e-10   1.055e-10    -9.970    -9.977    -0.007     -4.12
   H2O             5.551e+01   1.000e+00     1.744    -0.000     0.000     18.07
Cl            9.904e-05
   Cl-             9.904e-05   9.744e-05    -4.004    -4.011    -0.007     18.06
H(0)          0.000e+00
   H2              0.000e+00   0.000e+00   -42.793   -42.793     0.000     28.61
N(-3)         0.000e+00
   NH4+            0.000e+00   0.000e+00   -51.533   -51.541    -0.007     17.95
   NH3             0.000e+00   0.000e+00   -56.767   -56.767     0.000     24.42
N(0)          1.286e-07
   N2              6.432e-08   6.433e-08    -7.192    -7.192     0.000     29.29
N(3)          8.376e-16
   NO2-            8.376e-16   8.240e-16   -15.077   -15.084    -0.007     24.95
N(5)          9.899e-05
   NO3-            9.899e-05   9.738e-05    -4.004    -4.012    -0.007     29.47
Na            1.005e-04
   Na+             1.005e-04   9.891e-05    -3.998    -4.005    -0.007     -1.50
   NaOH            1.043e-24   1.043e-24   -23.982   -23.982     0.000     (0)  
O(0)          3.207e-07
   O2              1.604e-07   1.604e-07    -6.795    -6.795     0.000     30.40

------------------------------Saturation indices-------------------------------

  Phase               SI** log IAP   log K(298 K,   1 atm)

  H2(g)           -39.69    -42.79   -3.10  H2
  H2O(g)           -1.50     -0.00    1.50  H2O
  Halite           -9.59     -8.02    1.57  NaCl
  N2(g)            -4.02     -7.19   -3.18  N2
  NH3(g)          -58.56    -56.77    1.80  NH3
  O2(g)            -3.90     -6.79   -2.89  O2

**For a gas, SI = log10(fugacity). Fugacity = pressure * phi / 1 atm.
  For ideal gases, phi = 1.

Using mix 9.	

Mixture 9.	

	  0.000e+00 Solution 8	Solution after simulation 1.                           
	  1.000e+00 Solution 9	Solution after simulation 1.                           
	  0.000e+00 Solution 10	Solution after simulation 1.                           

-----------------------------Solution composition------------------------------

	Elements           Molality       Moles

	Cl                9.959e-05   9.959e-05
	N                 9.963e-05   9.963e-05
	Na                1.002e-04   1.002e-04

----------------------------Description of solution----------------------------

                                       pH  =   4.012      Charge balance
                                       pe  =  15.811      Adjusted to redox equilibrium
      Specific Conductance (µS/cm,  25°C)  = 53
                          Density (g/cm³)  =   0.99705
                               Volume (L)  =   1.00297
                        Activity of water  =   1.000
                 Ionic strength (mol/kgw)  =   1.991e-04
                       Mass of water (kg)  =   1.000e+00
                 Total alkalinity (eq/kg)  =  -9.887e-05
                         Temperature (°C)  =  25.00
                  Electrical balance (eq)  =   6.277e-12
 Percent error, 100*(Cat-|An|)/(Cat+|An|)  =   0.00
                               Iterations  =   2
                                  Total H  = 1.110125e+02
                                  Total O  = 5.550652e+01

----------------------------Distribution of species----------------------------

                                               Log       Log       Log    mole V
   Species          Molality    Activity  Molality  Activity     Gamma   cm³/mol

   H+              9.887e-05   9.731e-05    -4.005    -4.012    -0.007      0.00
   OH-             1.057e-10   1.040e-10    -9.976    -9.983    -0.007     -4.12
   H2O             5.551e+01   1.000e+00     1.744    -0.000     0.000     18.07
Cl            9.959e-05
   Cl-             9.959e-05   9.798e-05    -4.002    -4.009    -0.007     18.06
H(0)          0.000e+00
   H2              0.000e+00   0.000e+00   -42.795   -42.795     0.000     28.61
N(-3)         0.000e+00
   NH4+            0.000e+00   0.000e+00   -51.529   -51.536    -0.007     17.95
   NH3             0.000e+00   0.000e+00   -56.768   -56.768     0.000     24.42
N(0)          1.299e-07
[...]
                  Electrical balance (eq)  =   7.548e-13
 Percent error, 100*(Cat-|An|)/(Cat+|An|)  =   0.00
                               Iterations  =   2
                                  Total H  = 1.110125e+02
                                  Total O  = 5.550650e+01

----------------------------Distribution of species----------------------------

                                               Log       Log       Log    mole V
   Species          Molality    Activity  Molality  Activity     Gamma   cm³/mol

   H+              8.794e-05   8.658e-05    -4.056    -4.063    -0.007      0.00
   OH-             1.188e-10   1.169e-10    -9.925    -9.932    -0.007     -4.13
   H2O             5.551e+01   1.000e+00     1.744    -0.000     0.000     18.07
Cl            9.565e-05
   Cl-             9.565e-05   9.414e-05    -4.019    -4.026    -0.007     18.06
H(0)          0.000e+00
   H2              0.000e+00   0.000e+00   -42.828   -42.828     0.000     28.61
N(-3)         0.000e+00
   NH4+            0.000e+00   0.000e+00   -51.783   -51.790    -0.007     17.95
   NH3             0.000e+00   0.000e+00   -56.971   -56.971     0.000     24.42
N(0)          6.405e-08
   N2              3.202e-08   3.203e-08    -7.495    -7.495     0.000     29.29
N(3)          7.400e-16
   NO2-            7.400e-16   7.282e-16   -15.131   -15.138    -0.007     24.95
N(5)          9.488e-05
   NO3-            9.488e-05   9.338e-05    -4.023    -4.030    -0.007     29.47
Na            1.026e-04
   Na+             1.026e-04   1.010e-04    -3.989    -3.996    -0.007     -1.50
   NaOH            1.180e-24   1.181e-24   -23.928   -23.928     0.000     (0)  
O(0)          3.775e-07
   O2              1.888e-07   1.888e-07    -6.724    -6.724     0.000     30.40

------------------------------Saturation indices-------------------------------

  Phase               SI** log IAP   log K(298 K,   1 atm)

  H2(g)           -39.73    -42.83   -3.10  H2
  H2O(g)           -1.50     -0.00    1.50  H2O
  Halite           -9.59     -8.02    1.57  NaCl
  N2(g)            -4.32     -7.49   -3.18  N2
  NH3(g)          -58.77    -56.97    1.80  NH3
  O2(g)            -3.83     -6.72   -2.89  O2

**For a gas, SI = log10(fugacity). Fugacity = pressure * phi / 1 atm.
  For ideal gases, phi = 1.

Using mix 6.	

Mixture 6.	

	  0.000e+00 Solution 5	Solution after simulation 3.                           
	  1.000e+00 Solution 6	Solution after simulation 3.                           
	  0.000e+00 Solution 7	Solution after simulation 3.                           

-----------------------------Solution composition------------------------------

	Elements           Molality       Moles

	Cl                9.836e-05   9.836e-05
	N                 9.826e-05   9.826e-05
	Na                1.008e-04   1.008e-04

----------------------------Description of solution----------------------------

                                       pH  =   4.026      Charge balance
                                       pe  =  15.904      Adjusted to redox equilibrium
      Specific Conductance (µS/cm,  25°C)  = 52
                          Density (g/cm³)  =   0.99705
                               Volume (L)  =   1.00297
                        Activity of water  =   1.000
                 Ionic strength (mol/kgw)  =   1.966e-04
                       Mass of water (kg)  =   1.000e+00
                 Total alkalinity (eq/kg)  =  -9.577e-05
                         Temperature (°C)  =  25.00
              Electrical Potential (Volt)  = -0.00
                  Electrical balance (eq)  =   6.326e-14
 Percent error, 100*(Cat-|An|)/(Cat+|An|)  =   0.00
                               Iterations  =   2
                                  Total H  = 1.110125e+02
                                  Total O  = 5.550651e+01

----------------------------Distribution of species----------------------------

                                               Log       Log       Log    mole V
   Species          Molality    Activity  Molality  Activity     Gamma   cm³/mol

   H+              9.577e-05   9.427e-05    -4.019    -4.026    -0.007      0.00
   OH-             1.091e-10   1.074e-10    -9.962    -9.969    -0.007     -4.12
   H2O             5.551e+01   1.000e+00     1.744    -0.000     0.000     18.07
Cl            9.836e-05
   Cl-             9.836e-05   9.678e-05    -4.007    -4.014    -0.007     18.06
H(0)          0.000e+00
   H2              0.000e+00   0.000e+00   -43.010   -43.010     0.000     28.61
N(-3)         0.000e+00
   NH4+            0.000e+00   0.000e+00   -52.421   -52.428    -0.007     17.95
   NH3             0.000e+00   0.000e+00   -57.647   -57.647     0.000     24.42
N(0)          1.002e-08
   N2              5.012e-09   5.012e-09    -8.300    -8.300     0.000     29.29
N(3)          5.041e-16
   NO2-            5.041e-16   4.959e-16   -15.298   -15.305    -0.007     24.95
N(5)          9.825e-05
   NO3-            9.825e-05   9.667e-05    -4.008    -4.015    -0.007     29.47
Na            1.008e-04
   Na+             1.008e-04   9.922e-05    -3.996    -4.003    -0.007     -1.50
   NaOH            1.065e-24   1.065e-24   -23.973   -23.973     0.000     (0)  
O(0)          8.725e-07
   O2              4.362e-07   4.363e-07    -6.360    -6.360     0.000     30.40

------------------------------Saturation indices-------------------------------

  Phase               SI** log IAP   log K(298 K,   1 atm)

  H2(g)           -39.91    -43.01   -3.10  H2
  H2O(g)           -1.50     -0.00    1.50  H2O
  Halite           -9.59     -8.02    1.57  NaCl
  N2(g)            -5.12     -8.30   -3.18  N2
  NH3(g)          -59.44    -57.65    1.80  NH3
  O2(g)            -3.47     -6.36   -2.89  O2

**For a gas, SI = log10(fugacity). Fugacity = pressure * phi / 1 atm.
  For ideal gases, phi = 1.

Using mix 7.	

Mixture 7.	

	  0.000e+00 Solution 6	Solution after simulation 3.                           
	  1.000e+00 Solution 7	Solution after simulation 3.                           
	  0.000e+00 Solution 8	Solution after simulation 3.                           

-----------------------------Solution composition------------------------------

	Elements           Molality       Moles

	Cl                1.004e-04   1.004e-04
	N                 1.003e-04   1.003e-04
	Na                9.968e-05   9.968e-05

----------------------------Description of solution----------------------------

                                       pH  =   4.003      Charge balance
                                       pe  =  16.049      Adjusted to redox equilibrium
      Specific Conductance (µS/cm,  25°C)  = 54
                          Density (g/cm³)  =   0.99705
                               Volume (L)  =   1.00297
                        Activity of water  =   1.000
                 Ionic strength (mol/kgw)  =   2.007e-04
                       Mass of water (kg)  =   1.000e+00
                 Total alkalinity (eq/kg)  =  -1.010e-04
                         Temperature (°C)  =  25.00
              Electrical Potential (Volt)  = -0.00
                  Electrical balance (eq)  =   4.703e-13
 Percent error, 100*(Cat-|An|)/(Cat+|An|)  =   0.00
                               Iterations  =   2
                                  Total H  = 1.110125e+02
                                  Total O  = 5.550652e+01

----------------------------Distribution of species----------------------------

                                               Log       Log       Log    mole V
   Species          Molality    Activity  Molality  Activity     Gamma   cm³/mol

   H+              1.010e-04   9.937e-05    -3.996    -4.003    -0.007      0.00
   OH-             1.035e-10   1.019e-10    -9.985    -9.992    -0.007     -4.12
   H2O             5.551e+01   1.000e+00     1.744    -0.000     0.000     18.07
Cl            1.004e-04
   Cl-             1.004e-04   9.873e-05    -3.998    -4.006    -0.007     18.06
H(0)          0.000e+00
   H2              0.000e+00   0.000e+00   -43.253   -43.253     0.000     28.61
N(-3)         0.000e+00
   NH4+            0.000e+00   0.000e+00   -53.339   -53.346    -0.007     17.95
   NH3             0.000e+00   0.000e+00   -58.588   -58.588     0.000     24.42
N(0)          7.062e-10
   N2              3.531e-10   3.531e-10    -9.452    -9.452     0.000     29.29
N(3)          2.940e-16
   NO2-            2.940e-16   2.892e-16   -15.532   -15.539    -0.007     24.95
N(5)          1.003e-04
   NO3-            1.003e-04   9.866e-05    -3.999    -4.006    -0.007     29.47
Na            9.968e-05
   Na+             9.968e-05   9.807e-05    -4.001    -4.008    -0.007     -1.50
   NaOH            9.989e-25   9.989e-25   -24.000   -24.000     0.000     (0)  
O(0)          2.673e-06
   O2              1.336e-06   1.337e-06    -5.874    -5.874     0.000     30.40

------------------------------Saturation indices-------------------------------

  Phase               SI** log IAP   log K(298 K,   1 atm)

  H2(g)           -40.15    -43.25   -3.10  H2
  H2O(g)           -1.50     -0.00    1.50  H2O
  Halite           -9.58     -8.01    1.57  NaCl
  N2(g)            -6.28     -9.45   -3.18  N2
  NH3(g)          -60.38    -58.59    1.80  NH3
  O2(g)            -2.98     -5.87   -2.89  O2

**For a gas, SI = log10(fugacity). Fugacity = pressure * phi / 1 atm.
  For ideal gases, phi = 1.

Using mix 8.	

Mixture 8.	

	  0.000e+00 Solution 7	Solution after simulation 3.                           
	  1.000e+00 Solution 8	Solution after simulation 3.                           
	  0.000e+00 Solution 9	Solution after simulation 3.                           

-----------------------------Solution composition------------------------------

	Elements           Molality       Moles

	Cl                1.021e-04   1.021e-04
	N                 1.020e-04   1.020e-04
	Na                9.863e-05   9.863e-05

----------------------------Description of solution----------------------------

                                       pH  =   3.984      Charge balance
                                       pe  =  16.175      Adjusted to redox equilibrium
      Specific Conductance (µS/cm,  25°C)  = 56
                          Density (g/cm³)  =   0.99705
                               Volume (L)  =   1.00297
                        Activity of water  =   1.000
                 Ionic strength (mol/kgw)  =   2.041e-04
                       Mass of water (kg)  =   1.000e+00
                 Total alkalinity (eq/kg)  =  -1.055e-04
                         Temperature (°C)  =  25.00
              Electrical Potential (Volt)  = -0.00
                  Electrical balance (eq)  =   1.009e-14
 Percent error, 100*(Cat-|An|)/(Cat+|An|)  =   0.00
                               Iterations  =   2
                                  Total H  = 1.110125e+02
                                  Total O  = 5.550653e+01

----------------------------Distribution of species----------------------------

                                               Log       Log       Log    mole V
   Species          Molality    Activity  Molality  Activity     Gamma   cm³/mol

   H+              1.055e-04   1.038e-04    -3.977    -3.984    -0.007      0.00
   OH-             9.914e-11   9.752e-11   -10.004   -10.011    -0.007     -4.12
   H2O             5.551e+01   1.000e+00     1.744    -0.000     0.000     18.07
Cl            1.021e-04
   Cl-             1.021e-04   1.005e-04    -3.991    -3.998    -0.007     18.06
H(0)          0.000e+00
   H2              0.000e+00   0.000e+00   -43.468   -43.468     0.000     28.61
N(-3)         0.000e+00
   NH4+            0.000e+00   0.000e+00   -54.155   -54.163    -0.007     17.95
   NH3             0.000e+00   0.000e+00   -59.423   -59.423     0.000     24.42
N(0)          6.673e-11
   N2              3.337e-11   3.337e-11   -10.477   -10.477     0.000     29.29
N(3)          1.820e-16
   NO2-            1.820e-16   1.791e-16   -15.740   -15.747    -0.007     24.95
N(5)          1.020e-04
   NO3-            1.020e-04   1.003e-04    -3.992    -3.999    -0.007     29.47
Na            9.863e-05
   Na+             9.863e-05   9.702e-05    -4.006    -4.013    -0.007     -1.50
   NaOH            9.461e-25   9.461e-25   -24.024   -24.024     0.000     (0)  
O(0)          7.205e-06
   O2              3.603e-06   3.603e-06    -5.443    -5.443     0.000     30.40

------------------------------Saturation indices-------------------------------

  Phase               SI** log IAP   log K(298 K,   1 atm)

  H2(g)           -40.37    -43.47   -3.10  H2
  H2O(g)           -1.50     -0.00    1.50  H2O
  Halite           -9.58     -8.01    1.57  NaCl
  N2(g)            -7.30    -10.48   -3.18  N2
  NH3(g)          -61.22    -59.42    1.80  NH3
  O2(g)            -2.55     -5.44   -2.89  O2

**For a gas, SI = log10(fugacity). Fugacity = pressure * phi / 1 atm.
  For ideal gases, phi = 1.

Using mix 9.	

Mixture 9.	

	  0.000e+00 Solution 8	Solution after simulation 3.                           
	  1.000e+00 Solution 9	Solution after simulation 3.                           
	  0.000e+00 Solution 10	Solution after simulation 3.                           

-----------------------------Solution composition------------------------------

	Elements           Molality       Moles

	Cl                1.041e-04   1.041e-04
	N                 1.039e-04   1.039e-04
	Na                9.726e-05   9.726e-05

----------------------------Description of solution----------------------------

                                       pH  =   3.963      Charge balance
                                       pe  =  16.288      Adjusted to redox equilibrium
      Specific Conductance (µS/cm,  25°C)  = 58
                          Density (g/cm³)  =   0.99705
                               Volume (L)  =   1.00297
                        Activity of water  =   1.000
                 Ionic strength (mol/kgw)  =   2.080e-04
                       Mass of water (kg)  =   1.000e+00
                 Total alkalinity (eq/kg)  =  -1.107e-04
                         Temperature (°C)  =  25.00
              Electrical Potential (Volt)  = -0.00
                  Electrical balance (eq)  =   2.791e-14
 Percent error, 100*(Cat-|An|)/(Cat+|An|)  =   0.00
                               Iterations  =   2
                                  Total H  = 1.110125e+02
                                  Total O  = 5.550654e+01

----------------------------Distribution of species----------------------------

                                               Log       Log       Log    mole V
   Species          Molality    Activity  Molality  Activity     Gamma   cm³/mol

   H+              1.107e-04   1.089e-04    -3.956    -3.963    -0.007      0.00
   OH-             9.447e-11   9.291e-11   -10.025   -10.032    -0.007     -4.12
   H2O             5.551e+01   1.000e+00     1.744    -0.000     0.000     18.07
Cl            1.041e-04
   Cl-             1.041e-04   1.024e-04    -3.982    -3.990    -0.007     18.06
H(0)          0.000e+00
   H2              0.000e+00   0.000e+00   -43.651   -43.651     0.000     28.61
N(-3)         0.000e+00
   NH4+            0.000e+00   0.000e+00   -54.835   -54.842    -0.007     17.95
   NH3             0.000e+00   0.000e+00   -60.123   -60.123     0.000     24.42
N(0)          9.348e-12
   N2              4.674e-12   4.674e-12   -11.330   -11.330     0.000     29.29
N(3)          1.219e-16
   NO2-            1.219e-16   1.198e-16   -15.914   -15.921    -0.007     24.95
N(5)          1.039e-04
   NO3-            1.039e-04   1.021e-04    -3.984    -3.991    -0.007     29.47
Na            9.726e-05
   Na+             9.726e-05   9.566e-05    -4.012    -4.019    -0.007     -1.50
   NaOH            8.887e-25   8.888e-25   -24.051   -24.051     0.000     (0)  
O(0)          1.668e-05
   O2              8.341e-06   8.342e-06    -5.079    -5.079     0.000     30.40

------------------------------Saturation indices-------------------------------

  Phase               SI** log IAP   log K(298 K,   1 atm)

  H2(g)           -40.55    -43.65   -3.10  H2
  H2O(g)           -1.50     -0.00    1.50  H2O
  Halite           -9.58     -8.01    1.57  NaCl
  N2(g)            -8.15    -11.33   -3.18  N2
  NH3(g)          -61.92    -60.12    1.80  NH3
  O2(g)            -2.19     -5.08   -2.89  O2

**For a gas, SI = log10(fugacity). Fugacity = pressure * phi / 1 atm.
  For ideal gases, phi = 1.

Using solution 10.	Solution after simulation 3.

-----------------------------Solution composition------------------------------

	Elements           Molality       Moles

	Cl                1.054e-04   1.054e-04
	N                 1.051e-04   1.051e-04
	Na                9.625e-05   9.625e-05

----------------------------Description of solution----------------------------

                                       pH  =   3.949      Charge balance
                                       pe  =  16.345      Adjusted to redox equilibrium
      Specific Conductance (µS/cm,  25°C)  = 59
                          Density (g/cm³)  =   0.99705
                               Volume (L)  =   1.00297
                        Activity of water  =   1.000
                 Ionic strength (mol/kgw)  =   2.104e-04
                       Mass of water (kg)  =   1.000e+00
                 Total alkalinity (eq/kg)  =  -1.142e-04
                         Temperature (°C)  =  25.00
                  Electrical balance (eq)  =   8.664e-14
 Percent error, 100*(Cat-|An|)/(Cat+|An|)  =   0.00
                               Iterations  =   2
                                  Total H  = 1.110124e+02
                                  Total O  = 5.550650e+01

----------------------------Distribution of species----------------------------

                                               Log       Log       Log    mole V
   Species          Molality    Activity  Molality  Activity     Gamma   cm³/mol

   H+              1.142e-04   1.123e-04    -3.942    -3.949    -0.007      0.00
   OH-             9.162e-11   9.010e-11   -10.038   -10.045    -0.007     -4.12
   H2O             5.551e+01   1.000e+00     1.744    -0.000     0.000     18.07
Cl            1.054e-04
   Cl-             1.054e-04   1.036e-04    -3.977    -3.985    -0.007     18.06
H(0)          0.000e+00
   H2              0.000e+00   0.000e+00   -43.738   -43.738     0.000     28.61
N(-3)         0.000e+00
   NH4+            0.000e+00   0.000e+00   -55.153   -55.161    -0.007     17.95
   NH3             0.000e+00   0.000e+00   -60.455   -60.455     0.000     24.42
N(0)          3.710e-12
   N2              1.855e-12   1.855e-12   -11.732   -11.732     0.000     29.29
N(3)          1.008e-16
   NO2-            1.008e-16   9.908e-17   -15.997   -16.004    -0.007     24.95
N(5)          1.051e-04
   NO3-            1.051e-04   1.033e-04    -3.978    -3.986    -0.007     29.47
Na            9.625e-05
   Na+             9.625e-05   9.466e-05    -4.017    -4.024    -0.007     -1.50
   NaOH            8.528e-25   8.529e-25   -24.069   -24.069     0.000     (0)  
O(0)          2.497e-05
   O2              1.249e-05   1.249e-05    -4.904    -4.904     0.000     30.40

------------------------------Saturation indices-------------------------------

  Phase               SI** log IAP   log K(298 K,   1 atm)

  H2(g)           -40.64    -43.74   -3.10  H2
  H2O(g)           -1.50     -0.00    1.50  H2O
  Halite           -9.58     -8.01    1.57  NaCl
  N2(g)            -8.56    -11.73   -3.18  N2
  NH3(g)          -62.25    -60.46    1.80  NH3
  O2(g)            -2.01     -4.90   -2.89  O2

**For a gas, SI = log10(fugacity). Fugacity = pressure * phi / 1 atm.
  For ideal gases, phi = 1.

------------------
End of simulation.
------------------

------------------------------------
Reading input data for simulation 4.
------------------------------------

------------------------------
End of Run after 1.19 Seconds.
------------------------------

