WARNING: Database file from DATABASE keyword is used; command line argument ignored.
   Input file: uphill_NP
  Output file: uphill_NP.out
Database file: ../database/phreeqc.dat

------------------
Reading data base.
------------------

	SOLUTION_MASTER_SPECIES
	SOLUTION_SPECIES
	PHASES
	EXCHANGE_MASTER_SPECIES
	EXCHANGE_SPECIES
	SURFACE_MASTER_SPECIES
	SURFACE_SPECIES
	RATES
	END
------------------------------------
Reading input data for simulation 1.
------------------------------------

	DATABASE ../database/phreeqc.dat
	SELECTED_OUTPUT 101
	 file                uphill_NP_101.sel
	USER_PUNCH 101
	 headings Mu SC
	 start
	10 PUNCH STR_F$(MU, 20, 12)
	20 PUNCH STR_F$(SC, 20, 10)
	 end
	PHASES
	Fix_Na
	 Na+ = Na+
	 log_k 0
	SOLUTION 0
	 pH 6 charge
	 N(5) 1e-3
	 Na 0.1
	 Cl 0.1
	SOLUTION 1-10
	 pH 4 charge
	 N(5) 0.1
	 Na 0.1
	 Cl 0.1
	END
-------------------------------------------
Beginning of initial solution calculations.
-------------------------------------------

Initial solution 0.	

-----------------------------Solution composition------------------------------

	Elements           Molality       Moles

	Cl                1.000e-04   1.000e-04
	N(5)              1.000e-06   1.000e-06
	Na                1.000e-04   1.000e-04

----------------------------Description of solution----------------------------

                                       pH  =   6.001      Charge balance
                                       pe  =   4.000    
      Specific Conductance (µS/cm,  25°C)  = 12
                          Density (g/cm³)  =   0.99705
                               Volume (L)  =   1.00297
                        Activity of water  =   1.000
                 Ionic strength (mol/kgw)  =   1.010e-04
                       Mass of water (kg)  =   1.000e+00
                 Total alkalinity (eq/kg)  =  -1.000e-06
                         Temperature (°C)  =  25.00
                  Electrical balance (eq)  =  -1.131e-14
 Percent error, 100*(Cat-|An|)/(Cat+|An|)  =  -0.00
                               Iterations  =   2
                                  Total H  = 1.110124e+02
                                  Total O  = 5.550622e+01

----------------------------Distribution of species----------------------------

                                               Log       Log       Log    mole V
   Species          Molality    Activity  Molality  Activity     Gamma   cm³/mol

   H+              1.010e-06   9.987e-07    -5.996    -6.001    -0.005      0.00
   OH-             1.025e-08   1.013e-08    -7.989    -7.994    -0.005     -4.13
   H2O             5.551e+01   1.000e+00     1.744    -0.000     0.000     18.07
Cl            1.000e-04
   Cl-             1.000e-04   9.884e-05    -4.000    -4.005    -0.005     18.05
H(0)          1.412e-23
   H2              7.061e-24   7.062e-24   -23.151   -23.151     0.000     28.61
N(5)          1.000e-06
   NO3-            1.000e-06   9.884e-07    -6.000    -6.005    -0.005     29.47
Na            1.000e-04
   Na+             1.000e-04   9.884e-05    -4.000    -4.005    -0.005     -1.51
   NaOH            1.002e-22   1.002e-22   -21.999   -21.999     0.000     (0)  
O(0)          0.000e+00
   O2              0.000e+00   0.000e+00   -46.078   -46.078     0.000     30.40

------------------------------Saturation indices-------------------------------

  Phase               SI** log IAP   log K(298 K,   1 atm)

  Fix_Na           -4.01     -4.01    0.00  Na+
  H2(g)           -20.05    -23.15   -3.10  H2
  H2O(g)           -1.50     -0.00    1.50  H2O
  Halite           -9.58     -8.01    1.57  NaCl
  O2(g)           -43.19    -46.08   -2.89  O2

**For a gas, SI = log10(fugacity). Fugacity = pressure * phi / 1 atm.
  For ideal gases, phi = 1.

Initial solution 1.	

-----------------------------Solution composition------------------------------

	Elements           Molality       Moles

	Cl                1.000e-04   1.000e-04
	N(5)              1.000e-04   1.000e-04
	Na                1.000e-04   1.000e-04

----------------------------Description of solution----------------------------

                                       pH  =   4.007      Charge balance
                                       pe  =   4.000    
      Specific Conductance (µS/cm,  25°C)  = 54
                          Density (g/cm³)  =   0.99705
                               Volume (L)  =   1.00297
                        Activity of water  =   1.000
                 Ionic strength (mol/kgw)  =   2.000e-04
                       Mass of water (kg)  =   1.000e+00
                 Total alkalinity (eq/kg)  =  -1.000e-04
                         Temperature (°C)  =  25.00
                  Electrical balance (eq)  =  -1.899e-17
 Percent error, 100*(Cat-|An|)/(Cat+|An|)  =  -0.00
                               Iterations  =   3 (5 overall)
                                  Total H  = 1.110125e+02
                                  Total O  = 5.550652e+01

----------------------------Distribution of species----------------------------

                                               Log       Log       Log    mole V
   Species          Molality    Activity  Molality  Activity     Gamma   cm³/mol

   H+              1.000e-04   9.842e-05    -4.000    -4.007    -0.007      0.00
   OH-             1.045e-10   1.028e-10    -9.981    -9.988    -0.007     -4.12
   H2O             5.551e+01   1.000e+00     1.744    -0.000     0.000     18.07
Cl            1.000e-04
   Cl-             1.000e-04   9.838e-05    -4.000    -4.007    -0.007     18.06
H(0)          1.371e-19
   H2              6.857e-20   6.857e-20   -19.164   -19.164     0.000     28.61
N(5)          1.000e-04
   NO3-            1.000e-04   9.838e-05    -4.000    -4.007    -0.007     29.47
Na            1.000e-04
   Na+             1.000e-04   9.839e-05    -4.000    -4.007    -0.007     -1.50
   NaOH            1.012e-24   1.012e-24   -23.995   -23.995     0.000     (0)  
O(0)          0.000e+00
   O2              0.000e+00   0.000e+00   -54.052   -54.052     0.000     30.40

------------------------------Saturation indices-------------------------------

  Phase               SI** log IAP   log K(298 K,   1 atm)

  Fix_Na           -4.01     -4.01    0.00  Na+
  H2(g)           -16.06    -19.16   -3.10  H2
  H2O(g)           -1.50     -0.00    1.50  H2O
  Halite           -9.58     -8.01    1.57  NaCl
  O2(g)           -51.16    -54.05   -2.89  O2

**For a gas, SI = log10(fugacity). Fugacity = pressure * phi / 1 atm.
  For ideal gases, phi = 1.

------------------
End of simulation.
------------------

------------------------------------
Reading input data for simulation 2.
------------------------------------

	SOLUTION 3
	 pH 4 charge
	 N(5) 0.1
	 Na 0.1 Fix_Na -3.95
	 Cl 0.1
	EQUILIBRIUM_PHASES 3
	Fix_Na -3.95 NaOH
	END
-------------------------------------------
Beginning of initial solution calculations.
-------------------------------------------

Initial solution 3.	

-----------------------------Solution composition------------------------------

	Elements           Molality       Moles

	Cl                1.000e-04   1.000e-04
	N(5)              1.000e-04   1.000e-04
	Na                1.140e-04   1.140e-04  Equilibrium with Fix_Na

----------------------------Description of solution----------------------------

                                       pH  =   4.073      Charge balance
                                       pe  =   4.000    
      Specific Conductance (µS/cm,  25°C)  = 50
                          Density (g/cm³)  =   0.99705
                               Volume (L)  =   1.00297
                        Activity of water  =   1.000
                 Ionic strength (mol/kgw)  =   2.000e-04
                       Mass of water (kg)  =   1.000e+00
                 Total alkalinity (eq/kg)  =  -8.596e-05
                         Temperature (°C)  =  25.00
                  Electrical balance (eq)  =   5.443e-13
 Percent error, 100*(Cat-|An|)/(Cat+|An|)  =   0.00
                               Iterations  =   6
                                  Total H  = 1.110125e+02
                                  Total O  = 5.550652e+01

----------------------------Distribution of species----------------------------

                                               Log       Log       Log    mole V
   Species          Molality    Activity  Molality  Activity     Gamma   cm³/mol

   H+              8.596e-05   8.460e-05    -4.066    -4.073    -0.007      0.00
   OH-             1.216e-10   1.196e-10    -9.915    -9.922    -0.007     -4.12
   H2O             5.551e+01   1.000e+00     1.744    -0.000     0.000     18.07
Cl            1.000e-04
   Cl-             1.000e-04   9.838e-05    -4.000    -4.007    -0.007     18.06
H(0)          1.013e-19
   H2              5.067e-20   5.067e-20   -19.295   -19.295     0.000     28.61
N(5)          1.000e-04
   NO3-            1.000e-04   9.838e-05    -4.000    -4.007    -0.007     29.47
Na            1.140e-04
   Na+             1.140e-04   1.122e-04    -3.943    -3.950    -0.007     -1.50
   NaOH            1.342e-24   1.342e-24   -23.872   -23.872     0.000     (0)  
O(0)          0.000e+00
   O2              0.000e+00   0.000e+00   -53.789   -53.789     0.000     30.40

------------------------------Saturation indices-------------------------------

  Phase               SI** log IAP   log K(298 K,   1 atm)

  Fix_Na           -3.95     -3.95    0.00  Na+
  H2(g)           -16.19    -19.30   -3.10  H2
  H2O(g)           -1.50     -0.00    1.50  H2O
  Halite           -9.53     -7.96    1.57  NaCl
  O2(g)           -50.90    -53.79   -2.89  O2

**For a gas, SI = log10(fugacity). Fugacity = pressure * phi / 1 atm.
  For ideal gases, phi = 1.

-----------------------------------------
Beginning of batch-reaction calculations.
-----------------------------------------

Reaction step 1.

Using solution 3.	
Using pure phase assemblage 3.	

-------------------------------Phase assemblage--------------------------------

                                                      Moles in assemblage
Phase               SI  log IAP  log K(T, P)   Initial       Final       Delta

Fix_Na           -3.95    -3.95      0.00
	 NaOH               is reactant       1.000e+01   1.000e+01   5.446e-10

-----------------------------Solution composition------------------------------

	Elements           Molality       Moles

	Cl                1.000e-04   1.000e-04
	N                 1.000e-04   1.000e-04
	Na                1.140e-04   1.140e-04

----------------------------Description of solution----------------------------

                                       pH  =   4.073      Charge balance
                                       pe  =  15.741      Adjusted to redox equilibrium
      Specific Conductance (µS/cm,  25°C)  = 50
                          Density (g/cm³)  =   0.99705
                               Volume (L)  =   1.00297
                        Activity of water  =   1.000
                 Ionic strength (mol/kgw)  =   1.999e-04
                       Mass of water (kg)  =   1.000e+00
                 Total alkalinity (eq/kg)  =  -8.584e-05
                         Temperature (°C)  =  25.00
                  Electrical balance (eq)  =   5.443e-13
 Percent error, 100*(Cat-|An|)/(Cat+|An|)  =   0.00
                               Iterations  =  21
                                  Total H  = 1.110125e+02
                                  Total O  = 5.550652e+01

----------------------------Distribution of species----------------------------

                                               Log       Log       Log    mole V
   Species          Molality    Activity  Molality  Activity     Gamma   cm³/mol

   H+              8.584e-05   8.448e-05    -4.066    -4.073    -0.007      0.00
   OH-             1.218e-10   1.198e-10    -9.914    -9.922    -0.007     -4.12
   H2O             5.551e+01   1.000e+00     1.744    -0.000     0.000     18.07
Cl            1.000e-04
   Cl-             1.000e-04   9.838e-05    -4.000    -4.007    -0.007     18.06
H(0)          0.000e+00
   H2              0.000e+00   0.000e+00   -42.778   -42.778     0.000     28.61
N(-3)         0.000e+00
   NH4+            0.000e+00   0.000e+00   -51.582   -51.589    -0.007     17.95
   NH3             0.000e+00   0.000e+00   -56.760   -56.760     0.000     24.42
N(0)          1.200e-07
   N2              5.999e-08   6.000e-08    -7.222    -7.222     0.000     29.29
N(3)          8.739e-16
   NO2-            8.739e-16   8.597e-16   -15.059   -15.066    -0.007     24.95
N(5)          9.988e-05
   NO3-            9.988e-05   9.826e-05    -4.001    -4.008    -0.007     29.47
Na            1.140e-04
   Na+             1.140e-04   1.122e-04    -3.943    -3.950    -0.007     -1.50
   NaOH            1.344e-24   1.344e-24   -23.872   -23.872     0.000     (0)  
O(0)          3.000e-07
   O2              1.500e-07   1.500e-07    -6.824    -6.824     0.000     30.40

------------------------------Saturation indices-------------------------------

  Phase               SI** log IAP   log K(298 K,   1 atm)

  Fix_Na           -3.95     -3.95    0.00  Na+
  H2(g)           -39.68    -42.78   -3.10  H2
  H2O(g)           -1.50     -0.00    1.50  H2O
  Halite           -9.53     -7.96    1.57  NaCl
  N2(g)            -4.05     -7.22   -3.18  N2
  NH3(g)          -58.56    -56.76    1.80  NH3
  O2(g)            -3.93     -6.82   -2.89  O2

**For a gas, SI = log10(fugacity). Fugacity = pressure * phi / 1 atm.
  For ideal gases, phi = 1.

------------------
End of simulation.
------------------

------------------------------------
Reading input data for simulation 3.
------------------------------------

	USER_PRINT
	10 if sim_no = 2 then end
	12 print 'cell ', str_f$(cell_no , 0, 0), '%error ', str_f$(percent_error, 0, 1)
	20 t = SYS("aq", count , name$ , type$ , moles )
	30 for i = 1 to count
	40   t = MCD_JTOT(name$(i))
	50   c = MCD_JCONC(name$(i))
	60   if t*c < 0 THEN s$ = "UPHILL" ELSE s$ = ""
	70   PRINT PAD(name$(i), 10), STR_E$(t, 10, 2), STR_E$(c, 10, 2), s$
	80 next i
	1000 end
	TRANSPORT
	 cells 10
	 lengths 1e-3
	 boundary_conditions 1 2
	 shifts 2
	 flow_direction diffusion_only
	 timest 0.3 hour 1
	 diffusion_coefficient 1.7e-9
	USER_GRAPH 1 classic
WARNING: Cell-lengths were read for 1 cells. Last value is used till cell 10.
WARNING: No dispersivities were read; disp = 0 assumed.
	 -headings  dist H+ NO3- Na+ Cl-
	 -axis_scale y_axis 0.0 0.12
	 -axis_scale x_axis 0.0 10 5 2.5
	 -axis_titles "Distance / mm" mmol/L
	 -plot_concentration_vs x
	 -initial_solutions true
	 -connect false
	 -start
	 10 if step_no > 0 then goto 60
	 20   if cell_no > 1 then goto 80
	 30   graph_x 0
	 40   graph_y 0.001, 0.001, 0.1, 0.1
	 50   goto 80
	 60 graph_x dist * 1e3
	 70 graph_y mol("H+")*1e3, mol("NO3-")*1e3, mol("Na+")*1e3, mol("Cl-")*1e3
	 80 end
	 -end
	END
------------------------------------
Beginning of transport calculations.
------------------------------------

-------------------------------
Equilibrating initial solutions
-------------------------------

Using solution 0.	

----------------------------------User print-----------------------------------

cell  0 %error  -0.0 
Cl-          0.00e+00   0.00e+00  
Na+          0.00e+00   0.00e+00  
H+           0.00e+00   0.00e+00  
NO3-         0.00e+00   0.00e+00  
OH-          0.00e+00   0.00e+00  
O2           0.00e+00   0.00e+00  
N2           0.00e+00   0.00e+00  
NO2-         0.00e+00   0.00e+00  
NaOH         0.00e+00   0.00e+00  
H2           0.00e+00   0.00e+00  
NH3          0.00e+00   0.00e+00  
NH4+         0.00e+00   0.00e+00  

-----------------------------Solution composition------------------------------

	Elements           Molality       Moles

	Cl                1.000e-04   1.000e-04
	N                 1.000e-06   1.000e-06
	Na                1.000e-04   1.000e-04

----------------------------Description of solution----------------------------

                                       pH  =   6.001      Charge balance
                                       pe  =  13.252      Adjusted to redox equilibrium
      Specific Conductance (µS/cm,  25°C)  = 12
                          Density (g/cm³)  =   0.99705
                               Volume (L)  =   1.00297
                        Activity of water  =   1.000
                 Ionic strength (mol/kgw)  =   1.010e-04
                       Mass of water (kg)  =   1.000e+00
                 Total alkalinity (eq/kg)  =  -9.993e-07
                         Temperature (°C)  =  25.00
                  Electrical balance (eq)  =  -1.131e-14
 Percent error, 100*(Cat-|An|)/(Cat+|An|)  =  -0.00
                               Iterations  =  19
                                  Total H  = 1.110124e+02
                                  Total O  = 5.550622e+01

----------------------------Distribution of species----------------------------

                                               Log       Log       Log    mole V
   Species          Molality    Activity  Molality  Activity     Gamma   cm³/mol

   H+              1.010e-06   9.981e-07    -5.996    -6.001    -0.005      0.00
   OH-             1.026e-08   1.014e-08    -7.989    -7.994    -0.005     -4.13
   H2O             5.551e+01   1.000e+00     1.744    -0.000     0.000     18.07
Cl            1.000e-04
   Cl-             1.000e-04   9.884e-05    -4.000    -4.005    -0.005     18.05
H(0)          0.000e+00
   H2              0.000e+00   0.000e+00   -41.657   -41.657     0.000     28.61
N(-3)         0.000e+00
   NH4+            0.000e+00   0.000e+00   -52.951   -52.956    -0.005     17.94
   NH3             0.000e+00   0.000e+00   -56.199   -56.199     0.000     24.42
N(0)          6.856e-10
   N2              3.428e-10   3.428e-10    -9.465    -9.465     0.000     29.29
N(3)          1.157e-16
   NO2-            1.157e-16   1.143e-16   -15.937   -15.942    -0.005     24.95
N(5)          9.993e-07
   NO3-            9.993e-07   9.877e-07    -6.000    -6.005    -0.005     29.47
Na            1.000e-04
   Na+             1.000e-04   9.884e-05    -4.000    -4.005    -0.005     -1.51
   NaOH            1.002e-22   1.002e-22   -21.999   -21.999     0.000     (0)  
O(0)          1.714e-09
   O2              8.570e-10   8.570e-10    -9.067    -9.067     0.000     30.40

------------------------------Saturation indices-------------------------------

  Phase               SI** log IAP   log K(298 K,   1 atm)

  Fix_Na           -4.01     -4.01    0.00  Na+
  H2(g)           -38.56    -41.66   -3.10  H2
  H2O(g)           -1.50     -0.00    1.50  H2O
  Halite           -9.58     -8.01    1.57  NaCl
  N2(g)            -6.29     -9.46   -3.18  N2
  NH3(g)          -58.00    -56.20    1.80  NH3
  O2(g)            -6.17     -9.07   -2.89  O2

**For a gas, SI = log10(fugacity). Fugacity = pressure * phi / 1 atm.
  For ideal gases, phi = 1.

Using solution 1.	

----------------------------------User print-----------------------------------

cell  1 %error  -0.0 
Cl-          0.00e+00   0.00e+00  
Na+          0.00e+00   0.00e+00  
H+           0.00e+00   0.00e+00  
NO3-         0.00e+00   0.00e+00  
O2           0.00e+00   0.00e+00  
N2           0.00e+00   0.00e+00  
OH-          0.00e+00   0.00e+00  
NO2-         0.00e+00   0.00e+00  
NaOH         0.00e+00   0.00e+00  
H2           0.00e+00   0.00e+00  
NH3          0.00e+00   0.00e+00  
NH4+         0.00e+00   0.00e+00  

-----------------------------Solution composition------------------------------

	Elements           Molality       Moles

	Cl                1.000e-04   1.000e-04
	N                 1.000e-04   1.000e-04
	Na                1.000e-04   1.000e-04

----------------------------Description of solution----------------------------

                                       pH  =   4.007      Charge balance
                                       pe  =  15.816      Adjusted to redox equilibrium
      Specific Conductance (µS/cm,  25°C)  = 54
                          Density (g/cm³)  =   0.99705
                               Volume (L)  =   1.00297
                        Activity of water  =   1.000
                 Ionic strength (mol/kgw)  =   1.999e-04
                       Mass of water (kg)  =   1.000e+00
                 Total alkalinity (eq/kg)  =  -9.987e-05
                         Temperature (°C)  =  25.00
                  Electrical balance (eq)  =  -1.760e-17
 Percent error, 100*(Cat-|An|)/(Cat+|An|)  =  -0.00
                               Iterations  =  19 (38 overall)
                                  Total H  = 1.110125e+02
                                  Total O  = 5.550652e+01

----------------------------Distribution of species----------------------------

                                               Log       Log       Log    mole V
   Species          Molality    Activity  Molality  Activity     Gamma   cm³/mol

   H+              9.987e-05   9.829e-05    -4.001    -4.007    -0.007      0.00
   OH-             1.047e-10   1.030e-10    -9.980    -9.987    -0.007     -4.12
   H2O             5.551e+01   1.000e+00     1.744    -0.000     0.000     18.07
Cl            1.000e-04
   Cl-             1.000e-04   9.838e-05    -4.000    -4.007    -0.007     18.06
H(0)          0.000e+00
   H2              0.000e+00   0.000e+00   -42.797   -42.797     0.000     28.61
N(-3)         0.000e+00
   NH4+            0.000e+00   0.000e+00   -51.526   -51.533    -0.007     17.95
   NH3             0.000e+00   0.000e+00   -56.770   -56.770     0.000     24.42
N(0)          1.308e-07
   N2              6.541e-08   6.541e-08    -7.184    -7.184     0.000     29.29
N(3)          8.368e-16
   NO2-            8.368e-16   8.232e-16   -15.077   -15.084    -0.007     24.95
N(5)          9.987e-05
   NO3-            9.987e-05   9.825e-05    -4.001    -4.008    -0.007     29.47
Na            1.000e-04
   Na+             1.000e-04   9.839e-05    -4.000    -4.007    -0.007     -1.50
   NaOH            1.013e-24   1.013e-24   -23.994   -23.994     0.000     (0)  
O(0)          3.270e-07
   O2              1.635e-07   1.635e-07    -6.786    -6.786     0.000     30.40

------------------------------Saturation indices-------------------------------

  Phase               SI** log IAP   log K(298 K,   1 atm)

  Fix_Na           -4.01     -4.01    0.00  Na+
  H2(g)           -39.70    -42.80   -3.10  H2
  H2O(g)           -1.50     -0.00    1.50  H2O
  Halite           -9.58     -8.01    1.57  NaCl
  N2(g)            -4.01     -7.18   -3.18  N2
  NH3(g)          -58.57    -56.77    1.80  NH3
  O2(g)            -3.89     -6.79   -2.89  O2

**For a gas, SI = log10(fugacity). Fugacity = pressure * phi / 1 atm.
  For ideal gases, phi = 1.

Using solution 2.	

----------------------------------User print-----------------------------------

cell  2 %error  -0.0 
Cl-          0.00e+00   0.00e+00  
Na+          0.00e+00   0.00e+00  
H+           0.00e+00   0.00e+00  
NO3-         0.00e+00   0.00e+00  
O2           0.00e+00   0.00e+00  
N2           0.00e+00   0.00e+00  
OH-          0.00e+00   0.00e+00  
NO2-         0.00e+00   0.00e+00  
NaOH         0.00e+00   0.00e+00  
H2           0.00e+00   0.00e+00  
NH3          0.00e+00   0.00e+00  
NH4+         0.00e+00   0.00e+00  

-----------------------------Solution composition------------------------------

	Elements           Molality       Moles

	Cl                1.000e-04   1.000e-04
	N                 1.000e-04   1.000e-04
	Na                1.000e-04   1.000e-04

----------------------------Description of solution----------------------------

                                       pH  =   4.007      Charge balance
                                       pe  =  15.816      Adjusted to redox equilibrium
      Specific Conductance (µS/cm,  25°C)  = 54
                          Density (g/cm³)  =   0.99705
                               Volume (L)  =   1.00297
                        Activity of water  =   1.000
                 Ionic strength (mol/kgw)  =   1.999e-04
                       Mass of water (kg)  =   1.000e+00
                 Total alkalinity (eq/kg)  =  -9.987e-05
                         Temperature (°C)  =  25.00
                  Electrical balance (eq)  =  -1.760e-17
 Percent error, 100*(Cat-|An|)/(Cat+|An|)  =  -0.00
                               Iterations  =  19 (57 overall)
                                  Total H  = 1.110125e+02
                                  Total O  = 5.550652e+01

----------------------------Distribution of species----------------------------

                                               Log       Log       Log    mole V
   Species          Molality    Activity  Molality  Activity     Gamma   cm³/mol

   H+              9.987e-05   9.829e-05    -4.001    -4.007    -0.007      0.00
   OH-             1.047e-10   1.030e-10    -9.980    -9.987    -0.007     -4.12
   H2O             5.551e+01   1.000e+00     1.744    -0.000     0.000     18.07
Cl            1.000e-04
   Cl-             1.000e-04   9.838e-05    -4.000    -4.007    -0.007     18.06
H(0)          0.000e+00
   H2              0.000e+00   0.000e+00   -42.797   -42.797     0.000     28.61
N(-3)         0.000e+00
   NH4+            0.000e+00   0.000e+00   -51.526   -51.533    -0.007     17.95
   NH3             0.000e+00   0.000e+00   -56.770   -56.770     0.000     24.42
N(0)          1.308e-07
   N2              6.541e-08   6.541e-08    -7.184    -7.184     0.000     29.29
N(3)          8.368e-16
   NO2-            8.368e-16   8.232e-16   -15.077   -15.084    -0.007     24.95
N(5)          9.987e-05
   NO3-            9.987e-05   9.825e-05    -4.001    -4.008    -0.007     29.47
Na            1.000e-04
   Na+             1.000e-04   9.839e-05    -4.000    -4.007    -0.007     -1.50
   NaOH            1.013e-24   1.013e-24   -23.994   -23.994     0.000     (0)  
O(0)          3.270e-07
   O2              1.635e-07   1.635e-07    -6.786    -6.786     0.000     30.40

------------------------------Saturation indices-------------------------------

  Phase               SI** log IAP   log K(298 K,   1 atm)

  Fix_Na           -4.01     -4.01    0.00  Na+
  H2(g)           -39.70    -42.80   -3.10  H2
  H2O(g)           -1.50     -0.00    1.50  H2O
  Halite           -9.58     -8.01    1.57  NaCl
  N2(g)            -4.01     -7.18   -3.18  N2
  NH3(g)          -58.57    -56.77    1.80  NH3
  O2(g)            -3.89     -6.79   -2.89  O2

**For a gas, SI = log10(fugacity). Fugacity = pressure * phi / 1 atm.
  For ideal gases, phi = 1.

Using solution 3.	
Using pure phase assemblage 3.	

----------------------------------User print-----------------------------------

cell  3 %error  0.0 
Na+          0.00e+00   0.00e+00  
Cl-          0.00e+00   0.00e+00  
NO3-         0.00e+00   0.00e+00  
H+           0.00e+00   0.00e+00  
O2           0.00e+00   0.00e+00  
N2           0.00e+00   0.00e+00  
OH-          0.00e+00   0.00e+00  
NO2-         0.00e+00   0.00e+00  
NaOH         0.00e+00   0.00e+00  
H2           0.00e+00   0.00e+00  
NH3          0.00e+00   0.00e+00  
NH4+         0.00e+00   0.00e+00  

-------------------------------Phase assemblage--------------------------------

                                                      Moles in assemblage
Phase               SI  log IAP  log K(T, P)   Initial       Final       Delta

Fix_Na           -3.95    -3.95      0.00
	 NaOH               is reactant      1.000e+01   1.000e+01   5.446e-10

-----------------------------Solution composition------------------------------

	Elements           Molality       Moles

	Cl                1.000e-04   1.000e-04
	N                 1.000e-04   1.000e-04
	Na                1.140e-04   1.140e-04

----------------------------Description of solution----------------------------

                                       pH  =   4.073      Charge balance
                                       pe  =  15.741      Adjusted to redox equilibrium
      Specific Conductance (µS/cm,  25°C)  = 50
                          Density (g/cm³)  =   0.99705
                               Volume (L)  =   1.00297
                        Activity of water  =   1.000
                 Ionic strength (mol/kgw)  =   1.999e-04
                       Mass of water (kg)  =   1.000e+00
                 Total alkalinity (eq/kg)  =  -8.584e-05
                         Temperature (°C)  =  25.00
                  Electrical balance (eq)  =   5.443e-13
 Percent error, 100*(Cat-|An|)/(Cat+|An|)  =   0.00
                               Iterations  =  21 (78 overall)
                                  Total H  = 1.110125e+02
                                  Total O  = 5.550652e+01

----------------------------Distribution of species----------------------------

                                               Log       Log       Log    mole V
   Species          Molality    Activity  Molality  Activity     Gamma   cm³/mol

   H+              8.584e-05   8.448e-05    -4.066    -4.073    -0.007      0.00
   OH-             1.218e-10   1.198e-10    -9.914    -9.922    -0.007     -4.12
   H2O             5.551e+01   1.000e+00     1.744    -0.000     0.000     18.07
Cl            1.000e-04
   Cl-             1.000e-04   9.838e-05    -4.000    -4.007    -0.007     18.06
H(0)          0.000e+00
   H2              0.000e+00   0.000e+00   -42.778   -42.778     0.000     28.61
N(-3)         0.000e+00
   NH4+            0.000e+00   0.000e+00   -51.582   -51.589    -0.007     17.95
   NH3             0.000e+00   0.000e+00   -56.760   -56.760     0.000     24.42
N(0)          1.200e-07
   N2              5.999e-08   6.000e-08    -7.222    -7.222     0.000     29.29
N(3)          8.739e-16
   NO2-            8.739e-16   8.597e-16   -15.059   -15.066    -0.007     24.95
N(5)          9.988e-05
   NO3-            9.988e-05   9.826e-05    -4.001    -4.008    -0.007     29.47
Na            1.140e-04
   Na+             1.140e-04   1.122e-04    -3.943    -3.950    -0.007     -1.50
   NaOH            1.344e-24   1.344e-24   -23.872   -23.872     0.000     (0)  
O(0)          3.000e-07
   O2              1.500e-07   1.500e-07    -6.824    -6.824     0.000     30.40

------------------------------Saturation indices-------------------------------

  Phase               SI** log IAP   log K(298 K,   1 atm)

  Fix_Na           -3.95     -3.95    0.00  Na+
  H2(g)           -39.68    -42.78   -3.10  H2
  H2O(g)           -1.50     -0.00    1.50  H2O
  Halite           -9.53     -7.96    1.57  NaCl
  N2(g)            -4.05     -7.22   -3.18  N2
  NH3(g)          -58.56    -56.76    1.80  NH3
  O2(g)            -3.93     -6.82   -2.89  O2

**For a gas, SI = log10(fugacity). Fugacity = pressure * phi / 1 atm.
  For ideal gases, phi = 1.

Using solution 4.	

----------------------------------User print-----------------------------------

cell  4 %error  -0.0 
Cl-          0.00e+00   0.00e+00  
Na+          0.00e+00   0.00e+00  
H+           0.00e+00   0.00e+00  
NO3-         0.00e+00   0.00e+00  
O2           0.00e+00   0.00e+00  
N2           0.00e+00   0.00e+00  
OH-          0.00e+00   0.00e+00  
NO2-         0.00e+00   0.00e+00  
NaOH         0.00e+00   0.00e+00  
H2           0.00e+00   0.00e+00  
NH3          0.00e+00   0.00e+00  
NH4+         0.00e+00   0.00e+00  

-----------------------------Solution composition------------------------------

	Elements           Molality       Moles

	Cl                1.000e-04   1.000e-04
	N                 1.000e-04   1.000e-04
	Na                1.000e-04   1.000e-04

----------------------------Description of solution----------------------------

                                       pH  =   4.007      Charge balance
                                       pe  =  15.816      Adjusted to redox equilibrium
      Specific Conductance (µS/cm,  25°C)  = 54
                          Density (g/cm³)  =   0.99705
                               Volume (L)  =   1.00297
                        Activity of water  =   1.000
                 Ionic strength (mol/kgw)  =   1.999e-04
                       Mass of water (kg)  =   1.000e+00
                 Total alkalinity (eq/kg)  =  -9.987e-05
                         Temperature (°C)  =  25.00
                  Electrical balance (eq)  =  -2.414e-17
 Percent error, 100*(Cat-|An|)/(Cat+|An|)  =  -0.00
                               Iterations  =  19 (97 overall)
                                  Total H  = 1.110125e+02
                                  Total O  = 5.550652e+01

----------------------------Distribution of species----------------------------

                                               Log       Log       Log    mole V
   Species          Molality    Activity  Molality  Activity     Gamma   cm³/mol

   H+              9.987e-05   9.829e-05    -4.001    -4.007    -0.007      0.00
   OH-             1.047e-10   1.030e-10    -9.980    -9.987    -0.007     -4.12
   H2O             5.551e+01   1.000e+00     1.744    -0.000     0.000     18.07
Cl            1.000e-04
   Cl-             1.000e-04   9.838e-05    -4.000    -4.007    -0.007     18.06
H(0)          0.000e+00
   H2              0.000e+00   0.000e+00   -42.797   -42.797     0.000     28.61
N(-3)         0.000e+00
   NH4+            0.000e+00   0.000e+00   -51.526   -51.533    -0.007     17.95
   NH3             0.000e+00   0.000e+00   -56.770   -56.770     0.000     24.42
N(0)          1.308e-07
   N2              6.541e-08   6.541e-08    -7.184    -7.184     0.000     29.29
N(3)          8.368e-16
   NO2-            8.368e-16   8.232e-16   -15.077   -15.084    -0.007     24.95
N(5)          9.987e-05
   NO3-            9.987e-05   9.825e-05    -4.001    -4.008    -0.007     29.47
Na            1.000e-04
   Na+             1.000e-04   9.839e-05    -4.000    -4.007    -0.007     -1.50
   NaOH            1.013e-24   1.013e-24   -23.994   -23.994     0.000     (0)  
O(0)          3.270e-07
   O2              1.635e-07   1.635e-07    -6.786    -6.786     0.000     30.40

------------------------------Saturation indices-------------------------------

  Phase               SI** log IAP   log K(298 K,   1 atm)

  Fix_Na           -4.01     -4.01    0.00  Na+
  H2(g)           -39.70    -42.80   -3.10  H2
  H2O(g)           -1.50     -0.00    1.50  H2O
  Halite           -9.58     -8.01    1.57  NaCl
  N2(g)            -4.01     -7.18   -3.18  N2
  NH3(g)          -58.57    -56.77    1.80  NH3
  O2(g)            -3.89     -6.79   -2.89  O2

**For a gas, SI = log10(fugacity). Fugacity = pressure * phi / 1 atm.
  For ideal gases, phi = 1.

Using solution 5.	

----------------------------------User print-----------------------------------

cell  5 %error  -0.0 
Cl-          0.00e+00   0.00e+00  
Na+          0.00e+00   0.00e+00  
H+           0.00e+00   0.00e+00  
NO3-         0.00e+00   0.00e+00  
O2           0.00e+00   0.00e+00  
N2           0.00e+00   0.00e+00  
OH-          0.00e+00   0.00e+00  
NO2-         0.00e+00   0.00e+00  
NaOH         0.00e+00   0.00e+00  
H2           0.00e+00   0.00e+00  
NH3          0.00e+00   0.00e+00  
NH4+         0.00e+00   0.00e+00  

-----------------------------Solution composition------------------------------

	Elements           Molality       Moles

	Cl                1.000e-04   1.000e-04
	N                 1.000e-04   1.000e-04
	Na                1.000e-04   1.000e-04

----------------------------Description of solution----------------------------

                                       pH  =   4.007      Charge balance
                                       pe  =  15.816      Adjusted to redox equilibrium
      Specific Conductance (µS/cm,  25°C)  = 54
                          Density (g/cm³)  =   0.99705
                               Volume (L)  =   1.00297
                        Activity of water  =   1.000
                 Ionic strength (mol/kgw)  =   1.999e-04
                       Mass of water (kg)  =   1.000e+00
                 Total alkalinity (eq/kg)  =  -9.987e-05
                         Temperature (°C)  =  25.00
                  Electrical balance (eq)  =  -1.760e-17
 Percent error, 100*(Cat-|An|)/(Cat+|An|)  =  -0.00
                               Iterations  =  19 (116 overall)
                                  Total H  = 1.110125e+02
                                  Total O  = 5.550652e+01

----------------------------Distribution of species----------------------------

                                               Log       Log       Log    mole V
   Species          Molality    Activity  Molality  Activity     Gamma   cm³/mol

   H+              9.987e-05   9.829e-05    -4.001    -4.007    -0.007      0.00
   OH-             1.047e-10   1.030e-10    -9.980    -9.987    -0.007     -4.12
   H2O             5.551e+01   1.000e+00     1.744    -0.000     0.000     18.07
Cl            1.000e-04
   Cl-             1.000e-04   9.838e-05    -4.000    -4.007    -0.007     18.06
H(0)          0.000e+00
   H2              0.000e+00   0.000e+00   -42.797   -42.797     0.000     28.61
N(-3)         0.000e+00
   NH4+            0.000e+00   0.000e+00   -51.526   -51.533    -0.007     17.95
   NH3             0.000e+00   0.000e+00   -56.770   -56.770     0.000     24.42
N(0)          1.308e-07
   N2              6.541e-08   6.541e-08    -7.184    -7.184     0.000     29.29
N(3)          8.368e-16
   NO2-            8.368e-16   8.232e-16   -15.077   -15.084    -0.007     24.95
N(5)          9.987e-05
   NO3-            9.987e-05   9.825e-05    -4.001    -4.008    -0.007     29.47
Na            1.000e-04
   Na+             1.000e-04   9.839e-05    -4.000    -4.007    -0.007     -1.50
   NaOH            1.013e-24   1.013e-24   -23.994   -23.994     0.000     (0)  
O(0)          3.270e-07
   O2              1.635e-07   1.635e-07    -6.786    -6.786     0.000     30.40

------------------------------Saturation indices-------------------------------

  Phase               SI** log IAP   log K(298 K,   1 atm)

  Fix_Na           -4.01     -4.01    0.00  Na+
  H2(g)           -39.70    -42.80   -3.10  H2
  H2O(g)           -1.50     -0.00    1.50  H2O
  Halite           -9.58     -8.01    1.57  NaCl
  N2(g)            -4.01     -7.18   -3.18  N2
  NH3(g)          -58.57    -56.77    1.80  NH3
  O2(g)            -3.89     -6.79   -2.89  O2

**For a gas, SI = log10(fugacity). Fugacity = pressure * phi / 1 atm.
  For ideal gases, phi = 1.

Using solution 6.	

----------------------------------User print-----------------------------------

cell  6 %error  -0.0 
Cl-          0.00e+00   0.00e+00  
Na+          0.00e+00   0.00e+00  
H+           0.00e+00   0.00e+00  
NO3-         0.00e+00   0.00e+00  
O2           0.00e+00   0.00e+00  
N2           0.00e+00   0.00e+00  
OH-          0.00e+00   0.00e+00  
NO2-         0.00e+00   0.00e+00  
NaOH         0.00e+00   0.00e+00  
H2           0.00e+00   0.00e+00  
NH3          0.00e+00   0.00e+00  
NH4+         0.00e+00   0.00e+00  

-----------------------------Solution composition------------------------------

	Elements           Molality       Moles

	Cl                1.000e-04   1.000e-04
	N                 1.000e-04   1.000e-04
	Na                1.000e-04   1.000e-04

----------------------------Description of solution----------------------------

                                       pH  =   4.007      Charge balance
                                       pe  =  15.816      Adjusted to redox equilibrium
      Specific Conductance (µS/cm,  25°C)  = 54
                          Density (g/cm³)  =   0.99705
                               Volume (L)  =   1.00297
                        Activity of water  =   1.000
                 Ionic strength (mol/kgw)  =   1.999e-04
                       Mass of water (kg)  =   1.000e+00
                 Total alkalinity (eq/kg)  =  -9.987e-05
                         Temperature (°C)  =  25.00
                  Electrical balance (eq)  =  -1.760e-17
 Percent error, 100*(Cat-|An|)/(Cat+|An|)  =  -0.00
                               Iterations  =  19 (135 overall)
                                  Total H  = 1.110125e+02
                                  Total O  = 5.550652e+01

----------------------------Distribution of species----------------------------

                                               Log       Log       Log    mole V
   Species          Molality    Activity  Molality  Activity     Gamma   cm³/mol

   H+              9.987e-05   9.829e-05    -4.001    -4.007    -0.007      0.00
   OH-             1.047e-10   1.030e-10    -9.980    -9.987    -0.007     -4.12
   H2O             5.551e+01   1.000e+00     1.744    -0.000     0.000     18.07
Cl            1.000e-04
   Cl-             1.000e-04   9.838e-05    -4.000    -4.007    -0.007     18.06
H(0)          0.000e+00
   H2              0.000e+00   0.000e+00   -42.797   -42.797     0.000     28.61
N(-3)         0.000e+00
   NH4+            0.000e+00   0.000e+00   -51.526   -51.533    -0.007     17.95
   NH3             0.000e+00   0.000e+00   -56.770   -56.770     0.000     24.42
N(0)          1.308e-07
   N2              6.541e-08   6.541e-08    -7.184    -7.184     0.000     29.29
N(3)          8.368e-16
   NO2-            8.368e-16   8.232e-16   -15.077   -15.084    -0.007     24.95
N(5)          9.987e-05
   NO3-            9.987e-05   9.825e-05    -4.001    -4.008    -0.007     29.47
Na            1.000e-04
   Na+             1.000e-04   9.839e-05    -4.000    -4.007    -0.007     -1.50
   NaOH            1.013e-24   1.013e-24   -23.994   -23.994     0.000     (0)  
O(0)          3.270e-07
   O2              1.635e-07   1.635e-07    -6.786    -6.786     0.000     30.40

------------------------------Saturation indices-------------------------------

  Phase               SI** log IAP   log K(298 K,   1 atm)

  Fix_Na           -4.01     -4.01    0.00  Na+
  H2(g)           -39.70    -42.80   -3.10  H2
  H2O(g)           -1.50     -0.00    1.50  H2O
  Halite           -9.58     -8.01    1.57  NaCl
  N2(g)            -4.01     -7.18   -3.18  N2
  NH3(g)          -58.57    -56.77    1.80  NH3
  O2(g)            -3.89     -6.79   -2.89  O2

**For a gas, SI = log10(fugacity). Fugacity = pressure * phi / 1 atm.
  For ideal gases, phi = 1.

Using solution 7.	

----------------------------------User print-----------------------------------

cell  7 %error  -0.0 
Cl-          0.00e+00   0.00e+00  
Na+          0.00e+00   0.00e+00  
H+           0.00e+00   0.00e+00  
NO3-         0.00e+00   0.00e+00  
O2           0.00e+00   0.00e+00  
N2           0.00e+00   0.00e+00  
OH-          0.00e+00   0.00e+00  
NO2-         0.00e+00   0.00e+00  
NaOH         0.00e+00   0.00e+00  
H2           0.00e+00   0.00e+00  
NH3          0.00e+00   0.00e+00  
NH4+         0.00e+00   0.00e+00  

-----------------------------Solution composition------------------------------

	Elements           Molality       Moles

	Cl                1.000e-04   1.000e-04
	N                 1.000e-04   1.000e-04
	Na                1.000e-04   1.000e-04

----------------------------Description of solution----------------------------

                                       pH  =   4.007      Charge balance
                                       pe  =  15.816      Adjusted to redox equilibrium
      Specific Conductance (µS/cm,  25°C)  = 54
                          Density (g/cm³)  =   0.99705
                               Volume (L)  =   1.00297
                        Activity of water  =   1.000
                 Ionic strength (mol/kgw)  =   1.999e-04
                       Mass of water (kg)  =   1.000e+00
                 Total alkalinity (eq/kg)  =  -9.987e-05
                         Temperature (°C)  =  25.00
                  Electrical balance (eq)  =  -1.760e-17
 Percent error, 100*(Cat-|An|)/(Cat+|An|)  =  -0.00
                               Iterations  =  19 (154 overall)
                                  Total H  = 1.110125e+02
                                  Total O  = 5.550652e+01

----------------------------Distribution of species----------------------------

                                               Log       Log       Log    mole V
   Species          Molality    Activity  Molality  Activity     Gamma   cm³/mol

   H+              9.987e-05   9.829e-05    -4.001    -4.007    -0.007      0.00
   OH-             1.047e-10   1.030e-10    -9.980    -9.987    -0.007     -4.12
   H2O             5.551e+01   1.000e+00     1.744    -0.000     0.000     18.07
Cl            1.000e-04
   Cl-             1.000e-04   9.838e-05    -4.000    -4.007    -0.007     18.06
H(0)          0.000e+00
   H2              0.000e+00   0.000e+00   -42.797   -42.797     0.000     28.61
N(-3)         0.000e+00
   NH4+            0.000e+00   0.000e+00   -51.526   -51.533    -0.007     17.95
   NH3             0.000e+00   0.000e+00   -56.770   -56.770     0.000     24.42
N(0)          1.308e-07
   N2              6.541e-08   6.541e-08    -7.184    -7.184     0.000     29.29
N(3)          8.368e-16
   NO2-            8.368e-16   8.232e-16   -15.077   -15.084    -0.007     24.95
N(5)          9.987e-05
   NO3-            9.987e-05   9.825e-05    -4.001    -4.008    -0.007     29.47
Na            1.000e-04
   Na+             1.000e-04   9.839e-05    -4.000    -4.007    -0.007     -1.50
   NaOH            1.013e-24   1.013e-24   -23.994   -23.994     0.000     (0)  
O(0)          3.270e-07
   O2              1.635e-07   1.635e-07    -6.786    -6.786     0.000     30.40

------------------------------Saturation indices-------------------------------

  Phase               SI** log IAP   log K(298 K,   1 atm)

  Fix_Na           -4.01     -4.01    0.00  Na+
  H2(g)           -39.70    -42.80   -3.10  H2
  H2O(g)           -1.50     -0.00    1.50  H2O
  Halite           -9.58     -8.01    1.57  NaCl
  N2(g)            -4.01     -7.18   -3.18  N2
  NH3(g)          -58.57    -56.77    1.80  NH3
  O2(g)            -3.89     -6.79   -2.89  O2

**For a gas, SI = log10(fugacity). Fugacity = pressure * phi / 1 atm.
  For ideal gases, phi = 1.

Using solution 8.	

----------------------------------User print-----------------------------------

cell  8 %error  -0.0 
Cl-          0.00e+00   0.00e+00  
Na+          0.00e+00   0.00e+00  
H+           0.00e+00   0.00e+00  
NO3-         0.00e+00   0.00e+00  
O2           0.00e+00   0.00e+00  
N2           0.00e+00   0.00e+00  
OH-          0.00e+00   0.00e+00  
NO2-         0.00e+00   0.00e+00  
NaOH         0.00e+00   0.00e+00  
H2           0.00e+00   0.00e+00  
NH3          0.00e+00   0.00e+00  
NH4+         0.00e+00   0.00e+00  

-----------------------------Solution composition------------------------------

	Elements           Molality       Moles

	Cl                1.000e-04   1.000e-04
	N                 1.000e-04   1.000e-04
	Na                1.000e-04   1.000e-04

----------------------------Description of solution----------------------------

                                       pH  =   4.007      Charge balance
                                       pe  =  15.816      Adjusted to redox equilibrium
      Specific Conductance (µS/cm,  25°C)  = 54
                          Density (g/cm³)  =   0.99705
                               Volume (L)  =   1.00297
                        Activity of water  =   1.000
                 Ionic strength (mol/kgw)  =   1.999e-04
                       Mass of water (kg)  =   1.000e+00
                 Total alkalinity (eq/kg)  =  -9.987e-05
                         Temperature (°C)  =  25.00
                  Electrical balance (eq)  =  -1.760e-17
 Percent error, 100*(Cat-|An|)/(Cat+|An|)  =  -0.00
                               Iterations  =  19 (173 overall)
                                  Total H  = 1.110125e+02
                                  Total O  = 5.550652e+01

----------------------------Distribution of species----------------------------

                                               Log       Log       Log    mole V
   Species          Molality    Activity  Molality  Activity     Gamma   cm³/mol

   H+              9.987e-05   9.829e-05    -4.001    -4.007    -0.007      0.00
   OH-             1.047e-10   1.030e-10    -9.980    -9.987    -0.007     -4.12
   H2O             5.551e+01   1.000e+00     1.744    -0.000     0.000     18.07
Cl            1.000e-04
   Cl-             1.000e-04   9.838e-05    -4.000    -4.007    -0.007     18.06
H(0)          0.000e+00
   H2              0.000e+00   0.000e+00   -42.797   -42.797     0.000     28.61
N(-3)         0.000e+00
   NH4+            0.000e+00   0.000e+00   -51.526   -51.533    -0.007     17.95
   NH3             0.000e+00   0.000e+00   -56.770   -56.770     0.000     24.42
N(0)          1.308e-07
   N2              6.541e-08   6.541e-08    -7.184    -7.184     0.000     29.29
N(3)          8.368e-16
   NO2-            8.368e-16   8.232e-16   -15.077   -15.084    -0.007     24.95
N(5)          9.987e-05
   NO3-            9.987e-05   9.825e-05    -4.001    -4.008    -0.007     29.47
Na            1.000e-04
   Na+             1.000e-04   9.839e-05    -4.000    -4.007    -0.007     -1.50
   NaOH            1.013e-24   1.013e-24   -23.994   -23.994     0.000     (0)  
O(0)          3.270e-07
   O2              1.635e-07   1.635e-07    -6.786    -6.786     0.000     30.40

------------------------------Saturation indices-------------------------------

  Phase               SI** log IAP   log K(298 K,   1 atm)

  Fix_Na           -4.01     -4.01    0.00  Na+
  H2(g)           -39.70    -42.80   -3.10  H2
  H2O(g)           -1.50     -0.00    1.50  H2O
  Halite           -9.58     -8.01    1.57  NaCl
  N2(g)            -4.01     -7.18   -3.18  N2
  NH3(g)          -58.57    -56.77    1.80  NH3
  O2(g)            -3.89     -6.79   -2.89  O2

**For a gas, SI = log10(fugacity). Fugacity = pressure * phi / 1 atm.
  For ideal gases, phi = 1.

Using solution 9.	

----------------------------------User print-----------------------------------

cell  9 %error  -0.0 
Cl-          0.00e+00   0.00e+00  
Na+          0.00e+00   0.00e+00  
H+           0.00e+00   0.00e+00  
NO3-         0.00e+00   0.00e+00  
O2           0.00e+00   0.00e+00  
N2           0.00e+00   0.00e+00  
OH-          0.00e+00   0.00e+00  
NO2-         0.00e+00   0.00e+00  
NaOH         0.00e+00   0.00e+00  
H2           0.00e+00   0.00e+00  
NH3          0.00e+00   0.00e+00  
NH4+         0.00e+00   0.00e+00  

-----------------------------Solution composition------------------------------

	Elements           Molality       Moles

	Cl                1.000e-04   1.000e-04
	N                 1.000e-04   1.000e-04
	Na                1.000e-04   1.000e-04

----------------------------Description of solution----------------------------

                                       pH  =   4.007      Charge balance
                                       pe  =  15.816      Adjusted to redox equilibrium
      Specific Conductance (µS/cm,  25°C)  = 54
                          Density (g/cm³)  =   0.99705
                               Volume (L)  =   1.00297
                        Activity of water  =   1.000
                 Ionic strength (mol/kgw)  =   1.999e-04
                       Mass of water (kg)  =   1.000e+00
                 Total alkalinity (eq/kg)  =  -9.987e-05
                         Temperature (°C)  =  25.00
                  Electrical balance (eq)  =  -1.760e-17
 Percent error, 100*(Cat-|An|)/(Cat+|An|)  =  -0.00
                               Iterations  =  19 (192 overall)
                                  Total H  = 1.110125e+02
                                  Total O  = 5.550652e+01

----------------------------Distribution of species----------------------------

                                               Log       Log       Log    mole V
   Species          Molality    Activity  Molality  Activity     Gamma   cm³/mol

   H+              9.987e-05   9.829e-05    -4.001    -4.007    -0.007      0.00
   OH-             1.047e-10   1.030e-10    -9.980    -9.987    -0.007     -4.12
   H2O             5.551e+01   1.000e+00     1.744    -0.000     0.000     18.07
Cl            1.000e-04
   Cl-             1.000e-04   9.838e-05    -4.000    -4.007    -0.007     18.06
H(0)          0.000e+00
   H2              0.000e+00   0.000e+00   -42.797   -42.797     0.000     28.61
N(-3)         0.000e+00
   NH4+            0.000e+00   0.000e+00   -51.526   -51.533    -0.007     17.95
   NH3             0.000e+00   0.000e+00   -56.770   -56.770     0.000     24.42
N(0)          1.308e-07
   N2              6.541e-08   6.541e-08    -7.184    -7.184     0.000     29.29
N(3)          8.368e-16
   NO2-            8.368e-16   8.232e-16   -15.077   -15.084    -0.007     24.95
N(5)          9.987e-05
   NO3-            9.987e-05   9.825e-05    -4.001    -4.008    -0.007     29.47
Na            1.000e-04
   Na+             1.000e-04   9.839e-05    -4.000    -4.007    -0.007     -1.50
   NaOH            1.013e-24   1.013e-24   -23.994   -23.994     0.000     (0)  
O(0)          3.270e-07
   O2              1.635e-07   1.635e-07    -6.786    -6.786     0.000     30.40

------------------------------Saturation indices-------------------------------

  Phase               SI** log IAP   log K(298 K,   1 atm)

  Fix_Na           -4.01     -4.01    0.00  Na+
  H2(g)           -39.70    -42.80   -3.10  H2
  H2O(g)           -1.50     -0.00    1.50  H2O
  Halite           -9.58     -8.01    1.57  NaCl
  N2(g)            -4.01     -7.18   -3.18  N2
  NH3(g)          -58.57    -56.77    1.80  NH3
  O2(g)            -3.89     -6.79   -2.89  O2

**For a gas, SI = log10(fugacity). Fugacity = pressure * phi / 1 atm.
  For ideal gases, phi = 1.

Using solution 10.	

----------------------------------User print-----------------------------------

cell  10 %error  -0.0 
Cl-          0.00e+00   0.00e+00  
Na+          0.00e+00   0.00e+00  
H+           0.00e+00   0.00e+00  
NO3-         0.00e+00   0.00e+00  
O2           0.00e+00   0.00e+00  
N2           0.00e+00   0.00e+00  
OH-          0.00e+00   0.00e+00  
NO2-         0.00e+00   0.00e+00  
NaOH         0.00e+00   0.00e+00  
H2           0.00e+00   0.00e+00  
NH3          0.00e+00   0.00e+00  
NH4+         0.00e+00   0.00e+00  

-----------------------------Solution composition------------------------------

	Elements           Molality       Moles

	Cl                1.000e-04   1.000e-04
	N                 1.000e-04   1.000e-04
	Na                1.000e-04   1.000e-04

----------------------------Description of solution----------------------------

                                       pH  =   4.007      Charge balance
                                       pe  =  15.816      Adjusted to redox equilibrium
      Specific Conductance (µS/cm,  25°C)  = 54
                          Density (g/cm³)  =   0.99705
                               Volume (L)  =   1.00297
                        Activity of water  =   1.000
                 Ionic strength (mol/kgw)  =   1.999e-04
                       Mass of water (kg)  =   1.000e+00
                 Total alkalinity (eq/kg)  =  -9.987e-05
                         Temperature (°C)  =  25.00
                  Electrical balance (eq)  =  -1.760e-17
 Percent error, 100*(Cat-|An|)/(Cat+|An|)  =  -0.00
                               Iterations  =  19 (211 overall)
                                  Total H  = 1.110125e+02
                                  Total O  = 5.550652e+01

----------------------------Distribution of species----------------------------

                                               Log       Log       Log    mole V
   Species          Molality    Activity  Molality  Activity     Gamma   cm³/mol

   H+              9.987e-05   9.829e-05    -4.001    -4.007    -0.007      0.00
   OH-             1.047e-10   1.030e-10    -9.980    -9.987    -0.007     -4.12
   H2O             5.551e+01   1.000e+00     1.744    -0.000     0.000     18.07
Cl            1.000e-04
   Cl-             1.000e-04   9.838e-05    -4.000    -4.007    -0.007     18.06
H(0)          0.000e+00
   H2              0.000e+00   0.000e+00   -42.797   -42.797     0.000     28.61
N(-3)         0.000e+00
   NH4+            0.000e+00   0.000e+00   -51.526   -51.533    -0.007     17.95
   NH3             0.000e+00   0.000e+00   -56.770   -56.770     0.000     24.42
N(0)          1.308e-07
   N2              6.541e-08   6.541e-08    -7.184    -7.184     0.000     29.29
N(3)          8.368e-16
   NO2-            8.368e-16   8.232e-16   -15.077   -15.084    -0.007     24.95
N(5)          9.987e-05
   NO3-            9.987e-05   9.825e-05    -4.001    -4.008    -0.007     29.47
Na            1.000e-04
   Na+             1.000e-04   9.839e-05    -4.000    -4.007    -0.007     -1.50
   NaOH            1.013e-24   1.013e-24   -23.994   -23.994     0.000     (0)  
O(0)          3.270e-07
   O2              1.635e-07   1.635e-07    -6.786    -6.786     0.000     30.40

------------------------------Saturation indices-------------------------------

  Phase               SI** log IAP   log K(298 K,   1 atm)

  Fix_Na           -4.01     -4.01    0.00  Na+
  H2(g)           -39.70    -42.80   -3.10  H2
  H2O(g)           -1.50     -0.00    1.50  H2O
  Halite           -9.58     -8.01    1.57  NaCl
  N2(g)            -4.01     -7.18   -3.18  N2
  NH3(g)          -58.57    -56.77    1.80  NH3
  O2(g)            -3.89     -6.79   -2.89  O2

**For a gas, SI = log10(fugacity). Fugacity = pressure * phi / 1 atm.
  For ideal gases, phi = 1.

WARNING: 
Calculating transport: 10 (mobile) cells, 2 shifts, 9 mixruns...


Transport step   1. Mixrun   1.

Transport step   1. Mixrun   2.

Transport step   1. Mixrun   3.

Transport step   1. Mixrun   4.

Transport step   1. Mixrun   5.

Transport step   1. Mixrun   6.

Transport step   1. Mixrun   7.

Transport step   1. Mixrun   8.

Transport step   1. Mixrun   9.

Using solution 0.	Solution after simulation 3.

----------------------------------User print-----------------------------------

cell  0 %error  -0.0 
Cl-          0.00e+00   0.00e+00  
Na+          0.00e+00   0.00e+00  
H+           0.00e+00   0.00e+00  
NO3-         0.00e+00   0.00e+00  
OH-          0.00e+00   0.00e+00  
O2           0.00e+00   0.00e+00  
N2           0.00e+00   0.00e+00  
NO2-         0.00e+00   0.00e+00  
NaOH         0.00e+00   0.00e+00  
H2           0.00e+00   0.00e+00  
NH3          0.00e+00   0.00e+00  
NH4+         0.00e+00   0.00e+00  

-----------------------------Solution composition------------------------------

	Elements           Molality       Moles

	Cl                1.000e-04   1.000e-04
	N                 1.000e-06   1.000e-06
	Na                1.000e-04   1.000e-04

----------------------------Description of solution----------------------------

                                       pH  =   6.001      Charge balance
                                       pe  =  13.252      Adjusted to redox equilibrium
      Specific Conductance (µS/cm,  25°C)  = 12
                          Density (g/cm³)  =   0.99705
                               Volume (L)  =   1.00297
                        Activity of water  =   1.000
                 Ionic strength (mol/kgw)  =   1.010e-04
                       Mass of water (kg)  =   1.000e+00
                 Total alkalinity (eq/kg)  =  -9.993e-07
                         Temperature (°C)  =  25.00
                  Electrical balance (eq)  =  -1.134e-14
 Percent error, 100*(Cat-|An|)/(Cat+|An|)  =  -0.00
                               Iterations  =   1
                                  Total H  = 1.110124e+02
                                  Total O  = 5.550622e+01

----------------------------Distribution of species----------------------------

                                               Log       Log       Log    mole V
   Species          Molality    Activity  Molality  Activity     Gamma   cm³/mol

   H+              1.010e-06   9.981e-07    -5.996    -6.001    -0.005      0.00
   OH-             1.026e-08   1.014e-08    -7.989    -7.994    -0.005     -4.13
   H2O             5.551e+01   1.000e+00     1.744    -0.000     0.000     18.07
Cl            1.000e-04
   Cl-             1.000e-04   9.884e-05    -4.000    -4.005    -0.005     18.05
H(0)          0.000e+00
   H2              0.000e+00   0.000e+00   -41.657   -41.657     0.000     28.61
N(-3)         0.000e+00
   NH4+            0.000e+00   0.000e+00   -52.951   -52.956    -0.005     17.94
   NH3             0.000e+00   0.000e+00   -56.199   -56.199     0.000     24.42
N(0)          6.856e-10
   N2              3.428e-10   3.428e-10    -9.465    -9.465     0.000     29.29
N(3)          1.157e-16
   NO2-            1.157e-16   1.143e-16   -15.937   -15.942    -0.005     24.95
N(5)          9.993e-07
   NO3-            9.993e-07   9.877e-07    -6.000    -6.005    -0.005     29.47
Na            1.000e-04
   Na+             1.000e-04   9.884e-05    -4.000    -4.005    -0.005     -1.51
   NaOH            1.002e-22   1.002e-22   -21.999   -21.999     0.000     (0)  
O(0)          1.714e-09
   O2              8.570e-10   8.570e-10    -9.067    -9.067     0.000     30.40

------------------------------Saturation indices-------------------------------

  Phase               SI** log IAP   log K(298 K,   1 atm)

  Fix_Na           -4.01     -4.01    0.00  Na+
  H2(g)           -38.56    -41.66   -3.10  H2
  H2O(g)           -1.50     -0.00    1.50  H2O
  Halite           -9.58     -8.01    1.57  NaCl
  N2(g)            -6.29     -9.46   -3.18  N2
  NH3(g)          -58.00    -56.20    1.80  NH3
  O2(g)            -6.17     -9.07   -2.89  O2

**For a gas, SI = log10(fugacity). Fugacity = pressure * phi / 1 atm.
  For ideal gases, phi = 1.

Using mix 1.	

Mixture 1.	

	  4.080e-01 Solution 0	Solution after simulation 3.                           
	  3.880e-01 Solution 1	Solution after simulation 3.                           
	  2.040e-01 Solution 2	Solution after simulation 3.                           

----------------------------------User print-----------------------------------

cell  1 %error  -0.0 
Na+          0.00e+00   0.00e+00  
Cl-          0.00e+00   0.00e+00  
NO3-         0.00e+00   0.00e+00  
H+           0.00e+00   0.00e+00  
O2           0.00e+00   0.00e+00  
N2           0.00e+00   0.00e+00  
OH-          0.00e+00   0.00e+00  
NO2-         0.00e+00   0.00e+00  
NaOH         0.00e+00   0.00e+00  
H2           0.00e+00   0.00e+00  
NH3          0.00e+00   0.00e+00  
NH4+         0.00e+00   0.00e+00  

-----------------------------Solution composition------------------------------

	Elements           Molality       Moles

	Cl                1.000e-04   1.000e-04
	N                 2.147e-05   2.147e-05
	Na                1.026e-04   1.026e-04

----------------------------Description of solution----------------------------

                                       pH  =   4.730      Charge balance
                                       pe  =  14.895      Adjusted to redox equilibrium
      Specific Conductance (µS/cm,  25°C)  = 20
                          Density (g/cm³)  =   0.99705
                               Volume (L)  =   1.00297
                        Activity of water  =   1.000
                 Ionic strength (mol/kgw)  =   1.214e-04
                       Mass of water (kg)  =   1.000e+00
                 Total alkalinity (eq/kg)  =  -1.887e-05
                         Temperature (°C)  =  25.00
                  Electrical balance (eq)  =  -1.317e-14
 Percent error, 100*(Cat-|An|)/(Cat+|An|)  =  -0.00
                               Iterations  =   6
                                  Total H  = 1.110125e+02
                                  Total O  = 5.550628e+01

----------------------------Distribution of species----------------------------

                                               Log       Log       Log    mole V
   Species          Molality    Activity  Molality  Activity     Gamma   cm³/mol

   H+              1.887e-05   1.864e-05    -4.724    -4.730    -0.005      0.00
   OH-             5.500e-10   5.430e-10    -9.260    -9.265    -0.006     -4.13
   H2O             5.551e+01   1.000e+00     1.744    -0.000     0.000     18.07
Cl            1.000e-04
   Cl-             1.000e-04   9.873e-05    -4.000    -4.006    -0.006     18.06
H(0)          0.000e+00
   H2              0.000e+00   0.000e+00   -42.400   -42.400     0.000     28.61
N(-3)         0.000e+00
   NH4+            0.000e+00   0.000e+00   -52.051   -52.057    -0.006     17.94
   NH3             0.000e+00   0.000e+00   -56.571   -56.571     0.000     24.42
N(0)          2.105e-08
   N2              1.052e-08   1.052e-08    -7.978    -7.978     0.000     29.29
N(3)          4.480e-16
   NO2-            4.480e-16   4.423e-16   -15.349   -15.354    -0.006     24.95
N(5)          2.145e-05
   NO3-            2.145e-05   2.117e-05    -4.669    -4.674    -0.006     29.47
Na            1.026e-04
   Na+             1.026e-04   1.013e-04    -3.989    -3.995    -0.006     -1.51
   NaOH            5.499e-24   5.499e-24   -23.260   -23.260     0.000     (0)  
O(0)          5.262e-08
   O2              2.631e-08   2.631e-08    -7.580    -7.580     0.000     30.40

------------------------------Saturation indices-------------------------------

  Phase               SI** log IAP   log K(298 K,   1 atm)

  Fix_Na           -3.99     -3.99    0.00  Na+
  H2(g)           -39.30    -42.40   -3.10  H2
  H2O(g)           -1.50     -0.00    1.50  H2O
  Halite           -9.57     -8.00    1.57  NaCl
  N2(g)            -4.80     -7.98   -3.18  N2
  NH3(g)          -58.37    -56.57    1.80  NH3
  O2(g)            -4.69     -7.58   -2.89  O2

**For a gas, SI = log10(fugacity). Fugacity = pressure * phi / 1 atm.
  For ideal gases, phi = 1.

Using mix 2.	

Mixture 2.	

	  2.040e-01 Solution 1	Solution after simulation 3.                           
	  5.920e-01 Solution 2	Solution after simulation 3.                           
	  2.040e-01 Solution 3	Solution after simulation 3.                           

----------------------------------User print-----------------------------------

cell  2 %error  -0.0 
Na+          0.00e+00   0.00e+00  
Cl-          0.00e+00   0.00e+00  
NO3-         0.00e+00   0.00e+00  
H+           0.00e+00   0.00e+00  
O2           0.00e+00   0.00e+00  
N2           0.00e+00   0.00e+00  
OH-          0.00e+00   0.00e+00  
NO2-         0.00e+00   0.00e+00  
NaOH         0.00e+00   0.00e+00  
H2           0.00e+00   0.00e+00  
NH3          0.00e+00   0.00e+00  
NH4+         0.00e+00   0.00e+00  

-----------------------------Solution composition------------------------------

	Elements           Molality       Moles

	Cl                1.000e-04   1.000e-04
	N                 5.731e-05   5.731e-05
	Na                1.080e-04   1.080e-04

----------------------------Description of solution----------------------------

                                       pH  =   4.314      Charge balance
                                       pe  =  15.431      Adjusted to redox equilibrium
      Specific Conductance (µS/cm,  25°C)  = 34
                          Density (g/cm³)  =   0.99705
                               Volume (L)  =   1.00297
                        Activity of water  =   1.000
                 Ionic strength (mol/kgw)  =   1.572e-04
                       Mass of water (kg)  =   1.000e+00
                 Total alkalinity (eq/kg)  =  -4.923e-05
                         Temperature (°C)  =  25.00
                  Electrical balance (eq)  =  -5.263e-15
 Percent error, 100*(Cat-|An|)/(Cat+|An|)  =  -0.00
                               Iterations  =   3
                                  Total H  = 1.110125e+02
                                  Total O  = 5.550639e+01

----------------------------Distribution of species----------------------------

                                               Log       Log       Log    mole V
   Species          Molality    Activity  Molality  Activity     Gamma   cm³/mol

   H+              4.923e-05   4.853e-05    -4.308    -4.314    -0.006      0.00
   OH-             2.116e-10   2.086e-10    -9.674    -9.681    -0.006     -4.13
   H2O             5.551e+01   1.000e+00     1.744    -0.000     0.000     18.07
Cl            1.000e-04
   Cl-             1.000e-04   9.856e-05    -4.000    -4.006    -0.006     18.06
H(0)          0.000e+00
   H2              0.000e+00   0.000e+00   -42.640   -42.640     0.000     28.61
N(-3)         0.000e+00
   NH4+            0.000e+00   0.000e+00   -51.755   -51.761    -0.006     17.95
   NH3             0.000e+00   0.000e+00   -56.691   -56.691     0.000     24.42
N(0)          6.366e-08
   N2              3.183e-08   3.183e-08    -7.497    -7.497     0.000     29.29
N(3)          6.876e-16
   NO2-            6.876e-16   6.777e-16   -15.163   -15.169    -0.006     24.95
N(5)          5.725e-05
   NO3-            5.725e-05   5.642e-05    -4.242    -4.249    -0.006     29.47
Na            1.080e-04
   Na+             1.080e-04   1.065e-04    -3.966    -3.973    -0.006     -1.51
   NaOH            2.220e-24   2.221e-24   -23.654   -23.654     0.000     (0)  
O(0)          1.592e-07
   O2              7.958e-08   7.958e-08    -7.099    -7.099     0.000     30.40

------------------------------Saturation indices-------------------------------

  Phase               SI** log IAP   log K(298 K,   1 atm)

  Fix_Na           -3.97     -3.97    0.00  Na+
  H2(g)           -39.54    -42.64   -3.10  H2
  H2O(g)           -1.50     -0.00    1.50  H2O
  Halite           -9.55     -7.98    1.57  NaCl
  N2(g)            -4.32     -7.50   -3.18  N2
  NH3(g)          -58.49    -56.69    1.80  NH3
  O2(g)            -4.21     -7.10   -2.89  O2

**For a gas, SI = log10(fugacity). Fugacity = pressure * phi / 1 atm.
  For ideal gases, phi = 1.

Using mix 3.	
Using pure phase assemblage 3.	Pure-phase assemblage after simulation 3.

Mixture 3.	

	  2.040e-01 Solution 2	Solution after simulation 3.                           
	  5.920e-01 Solution 3	Solution after simulation 3.                           
	  2.040e-01 Solution 4	Solution after simulation 3.                           

----------------------------------User print-----------------------------------

cell  3 %error  0.0 
Na+          0.00e+00   0.00e+00  
Cl-          0.00e+00   0.00e+00  
NO3-         0.00e+00   0.00e+00  
H+           0.00e+00   0.00e+00  
O2           0.00e+00   0.00e+00  
N2           0.00e+00   0.00e+00  
OH-          0.00e+00   0.00e+00  
NO2-         0.00e+00   0.00e+00  
NaOH         0.00e+00   0.00e+00  
H2           0.00e+00   0.00e+00  
NH3          0.00e+00   0.00e+00  
NH4+         0.00e+00   0.00e+00  

-------------------------------Phase assemblage--------------------------------

                                                      Moles in assemblage
Phase               SI  log IAP  log K(T, P)   Initial       Final       Delta

Fix_Na           -3.95    -3.95      0.00
	 NaOH               is reactant      1.000e+01   1.000e+01  -3.095e-05

-----------------------------Solution composition------------------------------

	Elements           Molality       Moles

	Cl                1.000e-04   1.000e-04
	N                 8.135e-05   8.135e-05
	Na                1.140e-04   1.140e-04

----------------------------Description of solution----------------------------

                                       pH  =   4.179      Charge balance
                                       pe  =  15.608      Adjusted to redox equilibrium
      Specific Conductance (µS/cm,  25°C)  = 42
                          Density (g/cm³)  =   0.99705
                               Volume (L)  =   1.00297
                        Activity of water  =   1.000
                 Ionic strength (mol/kgw)  =   1.813e-04
                       Mass of water (kg)  =   1.000e+00
                 Total alkalinity (eq/kg)  =  -6.730e-05
                         Temperature (°C)  =  25.00
                  Electrical balance (eq)  =   1.993e-14
 Percent error, 100*(Cat-|An|)/(Cat+|An|)  =   0.00
                               Iterations  =   3
                                  Total H  = 1.110125e+02
                                  Total O  = 5.550647e+01

----------------------------Distribution of species----------------------------

                                               Log       Log       Log    mole V
   Species          Molality    Activity  Molality  Activity     Gamma   cm³/mol

   H+              6.730e-05   6.628e-05    -4.172    -4.179    -0.007      0.00
   OH-             1.551e-10   1.527e-10    -9.809    -9.816    -0.007     -4.13
   H2O             5.551e+01   1.000e+00     1.744    -0.000     0.000     18.07
Cl            1.000e-04
   Cl-             1.000e-04   9.846e-05    -4.000    -4.007    -0.007     18.06
H(0)          0.000e+00
   H2              0.000e+00   0.000e+00   -42.722   -42.722     0.000     28.61
N(-3)         0.000e+00
   NH4+            0.000e+00   0.000e+00   -51.660   -51.667    -0.007     17.95
   NH3             0.000e+00   0.000e+00   -56.732   -56.732     0.000     24.42
N(0)          9.287e-08
   N2              4.644e-08   4.644e-08    -7.333    -7.333     0.000     29.29
N(3)          8.080e-16
   NO2-            8.080e-16   7.955e-16   -15.093   -15.099    -0.007     24.95
N(5)          8.125e-05
   NO3-            8.125e-05   7.999e-05    -4.090    -4.097    -0.007     29.47
Na            1.140e-04
   Na+             1.140e-04   1.122e-04    -3.943    -3.950    -0.007     -1.50
   NaOH            1.713e-24   1.713e-24   -23.766   -23.766     0.000     (0)  
O(0)          2.322e-07
   O2              1.161e-07   1.161e-07    -6.935    -6.935     0.000     30.40

------------------------------Saturation indices-------------------------------

  Phase               SI** log IAP   log K(298 K,   1 atm)

  Fix_Na           -3.95     -3.95    0.00  Na+
  H2(g)           -39.62    -42.72   -3.10  H2
  H2O(g)           -1.50     -0.00    1.50  H2O
  Halite           -9.53     -7.96    1.57  NaCl
  N2(g)            -4.16     -7.33   -3.18  N2
  NH3(g)          -58.53    -56.73    1.80  NH3
  O2(g)            -4.04     -6.94   -2.89  O2

**For a gas, SI = log10(fugacity). Fugacity = pressure * phi / 1 atm.
  For ideal gases, phi = 1.

Using mix 4.	

Mixture 4.	

	  2.040e-01 Solution 3	Solution after simulation 3.                           
	  5.920e-01 Solution 4	Solution after simulation 3.                           
	  2.040e-01 Solution 5	Solution after simulation 3.                           

----------------------------------User print-----------------------------------

cell  4 %error  0.0 
Na+          0.00e+00   0.00e+00  
Cl-          0.00e+00   0.00e+00  
NO3-         0.00e+00   0.00e+00  
H+           0.00e+00   0.00e+00  
O2           0.00e+00   0.00e+00  
N2           0.00e+00   0.00e+00  
OH-          0.00e+00   0.00e+00  
NO2-         0.00e+00   0.00e+00  
NaOH         0.00e+00   0.00e+00  
H2           0.00e+00   0.00e+00  
NH3          0.00e+00   0.00e+00  
NH4+         0.00e+00   0.00e+00  

-----------------------------Solution composition------------------------------

	Elements           Molality       Moles

	Cl                1.000e-04   1.000e-04
	N                 9.362e-05   9.362e-05
	Na                1.086e-04   1.086e-04

----------------------------Description of solution----------------------------

                                       pH  =   4.078      Charge balance
                                       pe  =  15.732      Adjusted to redox equilibrium
      Specific Conductance (µS/cm,  25°C)  = 49
                          Density (g/cm³)  =   0.99705
                               Volume (L)  =   1.00297
                        Activity of water  =   1.000
                 Ionic strength (mol/kgw)  =   1.935e-04
                       Mass of water (kg)  =   1.000e+00
                 Total alkalinity (eq/kg)  =  -8.494e-05
                         Temperature (°C)  =  25.00
                  Electrical balance (eq)  =   3.201e-14
 Percent error, 100*(Cat-|An|)/(Cat+|An|)  =   0.00
                               Iterations  =   2
                                  Total H  = 1.110125e+02
                                  Total O  = 5.550650e+01

----------------------------Distribution of species----------------------------

                                               Log       Log       Log    mole V
   Species          Molality    Activity  Molality  Activity     Gamma   cm³/mol

   H+              8.494e-05   8.361e-05    -4.071    -4.078    -0.007      0.00
   OH-             1.230e-10   1.210e-10    -9.910    -9.917    -0.007     -4.13
   H2O             5.551e+01   1.000e+00     1.744    -0.000     0.000     18.07
Cl            1.000e-04
   Cl-             1.000e-04   9.841e-05    -4.000    -4.007    -0.007     18.06
H(0)          0.000e+00
   H2              0.000e+00   0.000e+00   -42.769   -42.769     0.000     28.61
N(-3)         0.000e+00
   NH4+            0.000e+00   0.000e+00   -51.582   -51.589    -0.007     17.95
   NH3             0.000e+00   0.000e+00   -56.756   -56.755     0.000     24.42
N(0)          1.149e-07
   N2              5.744e-08   5.744e-08    -7.241    -7.241     0.000     29.29
N(3)          8.361e-16
   NO2-            8.361e-16   8.227e-16   -15.078   -15.085    -0.007     24.95
N(5)          9.350e-05
   NO3-            9.350e-05   9.201e-05    -4.029    -4.036    -0.007     29.47
Na            1.086e-04
   Na+             1.086e-04   1.068e-04    -3.964    -3.971    -0.007     -1.50
   NaOH            1.293e-24   1.293e-24   -23.888   -23.888     0.000     (0)  
O(0)          2.872e-07
   O2              1.436e-07   1.436e-07    -6.843    -6.843     0.000     30.40

------------------------------Saturation indices-------------------------------

  Phase               SI** log IAP   log K(298 K,   1 atm)

  Fix_Na           -3.97     -3.97    0.00  Na+
  H2(g)           -39.67    -42.77   -3.10  H2
  H2O(g)           -1.50     -0.00    1.50  H2O
  Halite           -9.55     -7.98    1.57  NaCl
  N2(g)            -4.07     -7.24   -3.18  N2
  NH3(g)          -58.55    -56.76    1.80  NH3
  O2(g)            -3.95     -6.84   -2.89  O2

**For a gas, SI = log10(fugacity). Fugacity = pressure * phi / 1 atm.
  For ideal gases, phi = 1.

Using mix 5.	

Mixture 5.	

	  2.040e-01 Solution 4	Solution after simulation 3.                           
	  5.920e-01 Solution 5	Solution after simulation 3.                           
	  2.040e-01 Solution 6	Solution after simulation 3.                           

----------------------------------User print-----------------------------------

cell  5 %error  0.0 
Na+          0.00e+00   0.00e+00  
Cl-          0.00e+00   0.00e+00  
NO3-         0.00e+00   0.00e+00  
H+           0.00e+00   0.00e+00  
O2           0.00e+00   0.00e+00  
N2           0.00e+00   0.00e+00  
OH-          0.00e+00   0.00e+00  
NO2-         0.00e+00   0.00e+00  
NaOH         0.00e+00   0.00e+00  
H2           0.00e+00   0.00e+00  
NH3          0.00e+00   0.00e+00  
NH4+         0.00e+00   0.00e+00  

-----------------------------Solution composition------------------------------

	Elements           Molality       Moles

	Cl                1.000e-04   1.000e-04
	N                 9.834e-05   9.834e-05
	Na                1.043e-04   1.043e-04

----------------------------Description of solution----------------------------

                                       pH  =   4.034      Charge balance
                                       pe  =  15.784      Adjusted to redox equilibrium
      Specific Conductance (µS/cm,  25°C)  = 52
                          Density (g/cm³)  =   0.99705
                               Volume (L)  =   1.00297
                        Activity of water  =   1.000
                 Ionic strength (mol/kgw)  =   1.982e-04
                       Mass of water (kg)  =   1.000e+00
[...]
OH-          1.81e-13   3.73e-13  
NO2-        -4.61e-19   7.86e-20 UPHILL 
NaOH         9.23e-28   9.23e-28  
H2           0.00e+00   0.00e+00  
NH3          0.00e+00   0.00e+00  
NH4+         0.00e+00   0.00e+00  

-----------------------------Solution composition------------------------------

	Elements           Molality       Moles

	Cl                9.831e-05   9.831e-05
	N                 9.840e-05   9.840e-05
	Na                1.015e-04   1.015e-04

----------------------------Description of solution----------------------------

                                       pH  =   4.029      Charge balance
                                       pe  =  15.790      Adjusted to redox equilibrium
      Specific Conductance (µS/cm,  25°C)  = 52
                          Density (g/cm³)  =   0.99705
                               Volume (L)  =   1.00297
                        Activity of water  =   1.000
                 Ionic strength (mol/kgw)  =   1.966e-04
                       Mass of water (kg)  =   1.000e+00
                 Total alkalinity (eq/kg)  =  -9.508e-05
                         Temperature (°C)  =  25.00
                  Electrical balance (eq)  =   8.937e-13
 Percent error, 100*(Cat-|An|)/(Cat+|An|)  =   0.00
                               Iterations  =   2
                                  Total H  = 1.110125e+02
                                  Total O  = 5.550651e+01

----------------------------Distribution of species----------------------------

                                               Log       Log       Log    mole V
   Species          Molality    Activity  Molality  Activity     Gamma   cm³/mol

   H+              9.508e-05   9.359e-05    -4.022    -4.029    -0.007      0.00
   OH-             1.099e-10   1.082e-10    -9.959    -9.966    -0.007     -4.12
   H2O             5.551e+01   1.000e+00     1.744    -0.000     0.000     18.07
Cl            9.831e-05
   Cl-             9.831e-05   9.673e-05    -4.007    -4.014    -0.007     18.06
H(0)          0.000e+00
   H2              0.000e+00   0.000e+00   -42.788   -42.788     0.000     28.61
N(-3)         0.000e+00
   NH4+            0.000e+00   0.000e+00   -51.542   -51.549    -0.007     17.95
   NH3             0.000e+00   0.000e+00   -56.764   -56.764     0.000     24.42
N(0)          1.264e-07
   N2              6.322e-08   6.323e-08    -7.199    -7.199     0.000     29.29
N(3)          8.394e-16
   NO2-            8.394e-16   8.259e-16   -15.076   -15.083    -0.007     24.95
N(5)          9.828e-05
   NO3-            9.828e-05   9.669e-05    -4.008    -4.015    -0.007     29.47
Na            1.015e-04
   Na+             1.015e-04   9.989e-05    -3.993    -4.000    -0.007     -1.50
   NaOH            1.080e-24   1.080e-24   -23.966   -23.966     0.000     (0)  
O(0)          3.147e-07
   O2              1.574e-07   1.574e-07    -6.803    -6.803     0.000     30.40

------------------------------Saturation indices-------------------------------

  Phase               SI** log IAP   log K(298 K,   1 atm)

  Fix_Na           -4.00     -4.00    0.00  Na+
  H2(g)           -39.69    -42.79   -3.10  H2
  H2O(g)           -1.50     -0.00    1.50  H2O
  Halite           -9.58     -8.01    1.57  NaCl
  N2(g)            -4.02     -7.20   -3.18  N2
  NH3(g)          -58.56    -56.76    1.80  NH3
  O2(g)            -3.91     -6.80   -2.89  O2

**For a gas, SI = log10(fugacity). Fugacity = pressure * phi / 1 atm.
  For ideal gases, phi = 1.

Using mix 7.	

Mixture 7.	

	  0.000e+00 Solution 6	Solution after simulation 6.                           
	  1.000e+00 Solution 7	Solution after simulation 6.                           
	  0.000e+00 Solution 8	Solution after simulation 6.                           

----------------------------------User print-----------------------------------

cell  7 %error  0.0 
Na+          2.75e-08   9.75e-09  
Cl-         -4.61e-08  -1.92e-08  
NO3-        -4.17e-08  -1.66e-08  
H+          -1.15e-07  -2.38e-07  
O2          -7.80e-11  -7.80e-11  
N2          -2.30e-11  -2.30e-11  
OH-          7.00e-14   1.44e-13  
NO2-        -1.89e-19   2.34e-20 UPHILL 
NaOH         3.41e-28   3.41e-28  
H2           0.00e+00   0.00e+00  
NH3          0.00e+00   0.00e+00  
NH4+         0.00e+00   0.00e+00  

-----------------------------Solution composition------------------------------

	Elements           Molality       Moles

	Cl                9.929e-05   9.929e-05
	N                 9.935e-05   9.935e-05
	Na                1.005e-04   1.005e-04

----------------------------Description of solution----------------------------

                                       pH  =   4.016      Charge balance
                                       pe  =  15.806      Adjusted to redox equilibrium
      Specific Conductance (µS/cm,  25°C)  = 53
                          Density (g/cm³)  =   0.99705
                               Volume (L)  =   1.00297
                        Activity of water  =   1.000
                 Ionic strength (mol/kgw)  =   1.985e-04
                       Mass of water (kg)  =   1.000e+00
                 Total alkalinity (eq/kg)  =  -9.800e-05
                         Temperature (°C)  =  25.00
                  Electrical balance (eq)  =   2.675e-12
 Percent error, 100*(Cat-|An|)/(Cat+|An|)  =   0.00
                               Iterations  =   2
                                  Total H  = 1.110125e+02
                                  Total O  = 5.550651e+01

----------------------------Distribution of species----------------------------

                                               Log       Log       Log    mole V
   Species          Molality    Activity  Molality  Activity     Gamma   cm³/mol

   H+              9.800e-05   9.646e-05    -4.009    -4.016    -0.007      0.00
   OH-             1.067e-10   1.049e-10    -9.972    -9.979    -0.007     -4.12
   H2O             5.551e+01   1.000e+00     1.744    -0.000     0.000     18.07
Cl            9.929e-05
   Cl-             9.929e-05   9.769e-05    -4.003    -4.010    -0.007     18.06
H(0)          0.000e+00
   H2              0.000e+00   0.000e+00   -42.794   -42.794     0.000     28.61
N(-3)         0.000e+00
   NH4+            0.000e+00   0.000e+00   -51.532   -51.539    -0.007     17.95
   NH3             0.000e+00   0.000e+00   -56.768   -56.768     0.000     24.42
N(0)          1.291e-07
   N2              6.456e-08   6.456e-08    -7.190    -7.190     0.000     29.29
N(3)          8.376e-16
   NO2-            8.376e-16   8.240e-16   -15.077   -15.084    -0.007     24.95
N(5)          9.922e-05
   NO3-            9.922e-05   9.761e-05    -4.003    -4.011    -0.007     29.47
Na            1.005e-04
   Na+             1.005e-04   9.889e-05    -3.998    -4.005    -0.007     -1.50
   NaOH            1.038e-24   1.038e-24   -23.984   -23.984     0.000     (0)  
O(0)          3.222e-07
   O2              1.611e-07   1.611e-07    -6.793    -6.793     0.000     30.40

------------------------------Saturation indices-------------------------------

  Phase               SI** log IAP   log K(298 K,   1 atm)

  Fix_Na           -4.00     -4.00    0.00  Na+
  H2(g)           -39.69    -42.79   -3.10  H2
  H2O(g)           -1.50     -0.00    1.50  H2O
  Halite           -9.59     -8.02    1.57  NaCl
  N2(g)            -4.01     -7.19   -3.18  N2
  NH3(g)          -58.56    -56.77    1.80  NH3
  O2(g)            -3.90     -6.79   -2.89  O2

**For a gas, SI = log10(fugacity). Fugacity = pressure * phi / 1 atm.
  For ideal gases, phi = 1.

Using mix 8.	

Mixture 8.	

	  0.000e+00 Solution 7	Solution after simulation 6.                           
	  1.000e+00 Solution 8	Solution after simulation 6.                           
	  0.000e+00 Solution 9	Solution after simulation 6.                           

----------------------------------User print-----------------------------------

cell  8 %error  0.0 
Na+          9.41e-09   3.06e-09  
Cl-         -1.70e-08  -7.37e-09  
NO3-        -1.53e-08  -6.25e-09  
H+          -4.17e-08  -8.59e-08  
O2          -2.86e-11  -2.86e-11  
N2          -8.30e-12  -8.30e-12  
OH-          2.49e-14   5.13e-14  
NO2-        -6.93e-20   6.89e-21 UPHILL 
NaOH         1.18e-28   1.18e-28  
H2           0.00e+00   0.00e+00  
NH3          0.00e+00   0.00e+00  
NH4+         0.00e+00   0.00e+00  

-----------------------------Solution composition------------------------------

	Elements           Molality       Moles

	Cl                9.974e-05   9.974e-05
	N                 9.976e-05   9.976e-05
	Na                1.002e-04   1.002e-04

----------------------------Description of solution----------------------------

                                       pH  =   4.010      Charge balance
                                       pe  =  15.812      Adjusted to redox equilibrium
      Specific Conductance (µS/cm,  25°C)  = 54
                          Density (g/cm³)  =   0.99705
                               Volume (L)  =   1.00297
                        Activity of water  =   1.000
                 Ionic strength (mol/kgw)  =   1.994e-04
                       Mass of water (kg)  =   1.000e+00
                 Total alkalinity (eq/kg)  =  -9.921e-05
                         Temperature (°C)  =  25.00
                  Electrical balance (eq)  =   5.183e-12
 Percent error, 100*(Cat-|An|)/(Cat+|An|)  =   0.00
                               Iterations  =   2
                                  Total H  = 1.110125e+02
                                  Total O  = 5.550652e+01

----------------------------Distribution of species----------------------------

                                               Log       Log       Log    mole V
   Species          Molality    Activity  Molality  Activity     Gamma   cm³/mol

   H+              9.921e-05   9.764e-05    -4.003    -4.010    -0.007      0.00
   OH-             1.054e-10   1.037e-10    -9.977    -9.984    -0.007     -4.12
   H2O             5.551e+01   1.000e+00     1.744    -0.000     0.000     18.07
Cl            9.974e-05
   Cl-             9.974e-05   9.812e-05    -4.001    -4.008    -0.007     18.06
H(0)          0.000e+00
   H2              0.000e+00   0.000e+00   -42.796   -42.796     0.000     28.61
N(-3)         0.000e+00
   NH4+            0.000e+00   0.000e+00   -51.528   -51.535    -0.007     17.95
   NH3             0.000e+00   0.000e+00   -56.769   -56.769     0.000     24.42
N(0)          1.302e-07
   N2              6.511e-08   6.511e-08    -7.186    -7.186     0.000     29.29
N(3)          8.371e-16
   NO2-            8.371e-16   8.235e-16   -15.077   -15.084    -0.007     24.95
N(5)          9.963e-05
   NO3-            9.963e-05   9.801e-05    -4.002    -4.009    -0.007     29.47
Na            1.002e-04
   Na+             1.002e-04   9.855e-05    -3.999    -4.006    -0.007     -1.50
   NaOH            1.021e-24   1.022e-24   -23.991   -23.991     0.000     (0)  
O(0)          3.253e-07
   O2              1.627e-07   1.627e-07    -6.789    -6.789     0.000     30.40

------------------------------Saturation indices-------------------------------

  Phase               SI** log IAP   log K(298 K,   1 atm)

  Fix_Na           -4.01     -4.01    0.00  Na+
  H2(g)           -39.69    -42.80   -3.10  H2
  H2O(g)           -1.50     -0.00    1.50  H2O
  Halite           -9.58     -8.01    1.57  NaCl
  N2(g)            -4.01     -7.19   -3.18  N2
  NH3(g)          -58.57    -56.77    1.80  NH3
  O2(g)            -3.90     -6.79   -2.89  O2

**For a gas, SI = log10(fugacity). Fugacity = pressure * phi / 1 atm.
  For ideal gases, phi = 1.

Using mix 9.	

Mixture 9.	

	  0.000e+00 Solution 8	Solution after simulation 6.                           
	  1.000e+00 Solution 9	Solution after simulation 6.                           
	  0.000e+00 Solution 10	Solution after simulation 6.                           

----------------------------------User print-----------------------------------

cell  9 %error  0.0 
Na+          2.79e-09   8.67e-10  
Cl-         -5.25e-09  -2.31e-09  
NO3-        -4.69e-09  -1.94e-09  
H+          -1.27e-08  -2.62e-08  
O2          -8.77e-12  -8.77e-12  
N2          -2.52e-12  -2.52e-12  
OH-          7.57e-15   1.56e-14  
NO2-        -2.12e-20   1.92e-21 UPHILL 
NaOH         3.52e-29   3.52e-29  
H2           0.00e+00   0.00e+00  
NH3          0.00e+00   0.00e+00  
NH4+         0.00e+00   0.00e+00  

-----------------------------Solution composition------------------------------

	Elements           Molality       Moles

	Cl                9.991e-05   9.991e-05
	N                 9.992e-05   9.992e-05
	Na                1.000e-04   1.000e-04

----------------------------Description of solution----------------------------

                                       pH  =   4.008      Charge balance
                                       pe  =  15.815      Adjusted to redox equilibrium
      Specific Conductance (µS/cm,  25°C)  = 54
                          Density (g/cm³)  =   0.99705
                               Volume (L)  =   1.00297
                        Activity of water  =   1.000
                 Ionic strength (mol/kgw)  =   1.997e-04
                       Mass of water (kg)  =   1.000e+00
                 Total alkalinity (eq/kg)  =  -9.965e-05
                         Temperature (°C)  =  25.00
                  Electrical balance (eq)  =   6.803e-12
 Percent error, 100*(Cat-|An|)/(Cat+|An|)  =   0.00
                               Iterations  =   2
                                  Total H  = 1.110125e+02
                                  Total O  = 5.550652e+01

----------------------------Distribution of species----------------------------

                                               Log       Log       Log    mole V
   Species          Molality    Activity  Molality  Activity     Gamma   cm³/mol

   H+              9.965e-05   9.808e-05    -4.002    -4.008    -0.007      0.00
   OH-             1.049e-10   1.032e-10    -9.979    -9.986    -0.007     -4.12
   H2O             5.551e+01   1.000e+00     1.744    -0.000     0.000     18.07
Cl            9.991e-05
   Cl-             9.991e-05   9.829e-05    -4.000    -4.007    -0.007     18.06
H(0)          0.000e+00
   H2              0.000e+00   0.000e+00   -42.796   -42.796     0.000     28.61
N(-3)         0.000e+00
   NH4+            0.000e+00   0.000e+00   -51.526   -51.534    -0.007     17.95
   NH3             0.000e+00   0.000e+00   -56.769   -56.769     0.000     24.42
N(0)          1.306e-07
   N2              6.531e-08   6.531e-08    -7.185    -7.185     0.000     29.29
N(3)          8.369e-16
   NO2-            8.369e-16   8.233e-16   -15.077   -15.084    -0.007     24.95
N(5)          9.979e-05
   NO3-            9.979e-05   9.817e-05    -4.001    -4.008    -0.007     29.47
Na            1.000e-04
   Na+             1.000e-04   9.844e-05    -4.000    -4.007    -0.007     -1.50
   NaOH            1.016e-24   1.016e-24   -23.993   -23.993     0.000     (0)  
O(0)          3.265e-07
   O2              1.632e-07   1.632e-07    -6.787    -6.787     0.000     30.40

------------------------------Saturation indices-------------------------------

  Phase               SI** log IAP   log K(298 K,   1 atm)

  Fix_Na           -4.01     -4.01    0.00  Na+
  H2(g)           -39.70    -42.80   -3.10  H2
  H2O(g)           -1.50     -0.00    1.50  H2O
  Halite           -9.58     -8.01    1.57  NaCl
  N2(g)            -4.01     -7.18   -3.18  N2
  NH3(g)          -58.57    -56.77    1.80  NH3
  O2(g)            -3.89     -6.79   -2.89  O2

**For a gas, SI = log10(fugacity). Fugacity = pressure * phi / 1 atm.
  For ideal gases, phi = 1.

Using mix 10.	

Mixture 10.	

	  0.000e+00 Solution 9	Solution after simulation 6.                           
	  1.000e+00 Solution 10	Solution after simulation 6.                           
	  0.000e+00 Solution 11	                                                       

----------------------------------User print-----------------------------------

cell  10 %error  0.0 
Na+          0.00e+00   0.00e+00  
Cl-          0.00e+00   0.00e+00  
NO3-         0.00e+00   0.00e+00  
H+           0.00e+00   0.00e+00  
O2           0.00e+00   0.00e+00  
N2           0.00e+00   0.00e+00  
OH-          0.00e+00   0.00e+00  
NO2-         0.00e+00   0.00e+00  
NaOH         0.00e+00   0.00e+00  
H2           0.00e+00   0.00e+00  
NH3          0.00e+00   0.00e+00  
NH4+         0.00e+00   0.00e+00  

-----------------------------Solution composition------------------------------

	Elements           Molality       Moles

	Cl                9.997e-05   9.997e-05
	N                 9.997e-05   9.997e-05
	Na                1.000e-04   1.000e-04

----------------------------Description of solution----------------------------

                                       pH  =   4.008      Charge balance
                                       pe  =  15.816      Adjusted to redox equilibrium
      Specific Conductance (µS/cm,  25°C)  = 54
                          Density (g/cm³)  =   0.99705
                               Volume (L)  =   1.00297
                        Activity of water  =   1.000
                 Ionic strength (mol/kgw)  =   1.998e-04
                       Mass of water (kg)  =   1.000e+00
                 Total alkalinity (eq/kg)  =  -9.979e-05
                         Temperature (°C)  =  25.00
                  Electrical balance (eq)  =   2.287e-12
 Percent error, 100*(Cat-|An|)/(Cat+|An|)  =   0.00
                               Iterations  =   1
                                  Total H  = 1.110125e+02
                                  Total O  = 5.550652e+01

----------------------------Distribution of species----------------------------

                                               Log       Log       Log    mole V
   Species          Molality    Activity  Molality  Activity     Gamma   cm³/mol

   H+              9.979e-05   9.821e-05    -4.001    -4.008    -0.007      0.00
   OH-             1.048e-10   1.031e-10    -9.980    -9.987    -0.007     -4.12
   H2O             5.551e+01   1.000e+00     1.744    -0.000     0.000     18.07
Cl            9.997e-05
   Cl-             9.997e-05   9.835e-05    -4.000    -4.007    -0.007     18.06
H(0)          0.000e+00
   H2              0.000e+00   0.000e+00   -42.797   -42.797     0.000     28.61
N(-3)         0.000e+00
   NH4+            0.000e+00   0.000e+00   -51.526   -51.533    -0.007     17.95
   NH3             0.000e+00   0.000e+00   -56.770   -56.770     0.000     24.42
N(0)          1.307e-07
   N2              6.537e-08   6.538e-08    -7.185    -7.185     0.000     29.29
N(3)          8.368e-16
   NO2-            8.368e-16   8.233e-16   -15.077   -15.084    -0.007     24.95
N(5)          9.984e-05
   NO3-            9.984e-05   9.822e-05    -4.001    -4.008    -0.007     29.47
Na            1.000e-04
   Na+             1.000e-04   9.840e-05    -4.000    -4.007    -0.007     -1.50
   NaOH            1.014e-24   1.014e-24   -23.994   -23.994     0.000     (0)  
O(0)          3.268e-07
   O2              1.634e-07   1.634e-07    -6.787    -6.787     0.000     30.40

------------------------------Saturation indices-------------------------------

  Phase               SI** log IAP   log K(298 K,   1 atm)

  Fix_Na           -4.01     -4.01    0.00  Na+
  H2(g)           -39.70    -42.80   -3.10  H2
  H2O(g)           -1.50     -0.00    1.50  H2O
  Halite           -9.58     -8.01    1.57  NaCl
  N2(g)            -4.01     -7.18   -3.18  N2
  NH3(g)          -58.57    -56.77    1.80  NH3
  O2(g)            -3.89     -6.79   -2.89  O2

**For a gas, SI = log10(fugacity). Fugacity = pressure * phi / 1 atm.
  For ideal gases, phi = 1.

------------------
End of simulation.
------------------

------------------------------------
Reading input data for simulation 7.
------------------------------------

-------------------------------
End of Run after 0.061 Seconds.
-------------------------------

