WARNING: Database file from DATABASE keyword is used; command line argument ignored.
   Input file: uphill_NPa
  Output file: uphill_NPa.out
Database file: ../database/phreeqc.dat

------------------
Reading data base.
------------------

	SOLUTION_MASTER_SPECIES
	SOLUTION_SPECIES
	PHASES
	GAS_BINARY_PARAMETERS
	EXCHANGE_MASTER_SPECIES
	EXCHANGE_SPECIES
	SURFACE_MASTER_SPECIES
	SURFACE_SPECIES
	MEAN_GAMMAS
	RATES
	END
------------------------------------
Reading input data for simulation 1.
------------------------------------

	DATABASE ../database/phreeqc.dat
	SELECTED_OUTPUT 101
	    file                uphill_NPa_101.sel
	USER_PUNCH 101
	    headings Mu SC
	    start
	10 PUNCH STR_F$(MU, 20, 12)
	20 PUNCH STR_F$(SC, 20, 10)
	    end
	SOLUTION 0
	 pH 6 charge
	 N(5) 1e-3
	 Na 0.1
	 Cl 0.1
	SOLUTION 1-10
	 pH 4 charge
	 N(5) 0.1
	 Na 0.1
	 Cl 0.1
	TRANSPORT
	 cells 10
	 lengths 1e-3
	 boundary_conditions 1 3
	 shifts 1
	 flow_direction diffusion_only
	 timest 0.3 hour 1
	 multi_d true 1e-9 1 0.0 1.0 # Default D_w m2/s, porosity, porosity limit, exponent
	USER_GRAPH 1
WARNING: Cell-lengths were read for 1 cells. Last value is used till cell 10.
WARNING: No dispersivities were read; disp = 0 assumed.
WARNING: No porosities were read; used the value 1.00e+00 from -multi_D.
	 -headings  dist H+ NO3- Na+ Cl-
	 -axis_scale y_axis 0.0 0.12
	 -axis_scale x_axis 0.0 10 5 2.5
	 -axis_titles "Distance / mm" mmol/L
	 -plot_concentration_vs x
	 -initial_solutions true
	 -start
	 10 if step_no > 0 then goto 60
	 20   if cell_no > 1 then goto 80
	 30   graph_x 0
	 40   graph_y 0.001, 0.001, 0.1, 0.1
	 50   goto 80
	 60 graph_x dist * 1e3
	 70 graph_y mol("H+")*1e3, mol("NO3-")*1e3, mol("Na+")*1e3, mol("Cl-")*1e3
	 80 end
	 -end
	END
-------------------------------------------
Beginning of initial solution calculations.
-------------------------------------------

Initial solution 0.	

-----------------------------Solution composition------------------------------

	Elements           Molality       Moles

	Cl                1.000e-04   1.000e-04
	N(5)              1.000e-06   1.000e-06
	Na                1.000e-04   1.000e-04

----------------------------Description of solution----------------------------

                                       pH  =   6.001      Charge balance
                                       pe  =   4.000    
      Specific Conductance (µS/cm,  25°C)  = 12
                          Density (g/cm³)  =   0.99705
                               Volume (L)  =   1.00297
                        Viscosity (mPa s)  =   0.89008
                        Activity of water  =   1.000
                 Ionic strength (mol/kgw)  =   1.010e-04
                       Mass of water (kg)  =   1.000e+00
                 Total alkalinity (eq/kg)  =  -1.000e-06
                         Temperature (°C)  =  25.00
                  Electrical balance (eq)  =  -1.135e-14
 Percent error, 100*(Cat-|An|)/(Cat+|An|)  =  -0.00
                               Iterations  =   2
                                  Total H  = 1.110124e+02
                                  Total O  = 5.550622e+01

----------------------------Distribution of species----------------------------

                                               Log       Log       Log    mole V
   Species          Molality    Activity  Molality  Activity     Gamma   cm³/mol

   H+              1.010e-06   9.987e-07    -5.996    -6.001    -0.005      0.00
   OH-             1.025e-08   1.013e-08    -7.989    -7.994    -0.005     -4.13
   H2O             5.551e+01   1.000e+00     1.744    -0.000     0.000     18.07
Cl            1.000e-04
   Cl-             1.000e-04   9.884e-05    -4.000    -4.005    -0.005     18.05
   HCl             3.400e-11   3.401e-11   -10.468   -10.468     0.000     (0)  
H(0)          1.412e-23
   H2              7.061e-24   7.061e-24   -23.151   -23.151     0.000     28.61
N(5)          1.000e-06
   NO3-            1.000e-06   9.884e-07    -6.000    -6.005    -0.005     29.47
Na            1.000e-04
   Na+             1.000e-04   9.884e-05    -4.000    -4.005    -0.005     -1.51
O(0)          0.000e+00
   O2              0.000e+00   0.000e+00   -46.060   -46.060     0.000     30.40

------------------------------Saturation indices-------------------------------

  Phase               SI** log IAP   log K(298 K,   1 atm)

  H2(g)           -20.05    -23.15   -3.10  H2
  H2O(g)           -1.50     -0.00    1.50  H2O
  Halite           -9.58     -8.01    1.57  NaCl
  O2(g)           -43.17    -46.06   -2.89  O2

**For a gas, SI = log10(fugacity). Fugacity = pressure * phi / 1 atm.
  For ideal gases, phi = 1.

Initial solution 1.	

-----------------------------Solution composition------------------------------

	Elements           Molality       Moles

	Cl                1.000e-04   1.000e-04
	N(5)              1.000e-04   1.000e-04
	Na                1.000e-04   1.000e-04

----------------------------Description of solution----------------------------

                                       pH  =   4.007      Charge balance
                                       pe  =   4.000    
      Specific Conductance (µS/cm,  25°C)  = 54
                          Density (g/cm³)  =   0.99705
                               Volume (L)  =   1.00297
                        Viscosity (mPa s)  =   0.89009
                        Activity of water  =   1.000
                 Ionic strength (mol/kgw)  =   2.000e-04
                       Mass of water (kg)  =   1.000e+00
                 Total alkalinity (eq/kg)  =  -1.000e-04
                         Temperature (°C)  =  25.00
                  Electrical balance (eq)  =  -1.880e-17
 Percent error, 100*(Cat-|An|)/(Cat+|An|)  =  -0.00
                               Iterations  =   3 (5 overall)
                                  Total H  = 1.110125e+02
                                  Total O  = 5.550652e+01

----------------------------Distribution of species----------------------------

                                               Log       Log       Log    mole V
   Species          Molality    Activity  Molality  Activity     Gamma   cm³/mol

   H+              1.000e-04   9.842e-05    -4.000    -4.007    -0.007      0.00
   OH-             1.045e-10   1.028e-10    -9.981    -9.988    -0.007     -4.12
   H2O             5.551e+01   1.000e+00     1.744    -0.000     0.000     18.07
Cl            1.000e-04
   Cl-             1.000e-04   9.838e-05    -4.000    -4.007    -0.007     18.06
   HCl             3.335e-09   3.335e-09    -8.477    -8.477     0.000     (0)  
H(0)          1.371e-19
   H2              6.857e-20   6.857e-20   -19.164   -19.164     0.000     28.61
N(5)          1.000e-04
   NO3-            1.000e-04   9.838e-05    -4.000    -4.007    -0.007     29.47
Na            1.000e-04
   Na+             1.000e-04   9.839e-05    -4.000    -4.007    -0.007     -1.50
O(0)          0.000e+00
   O2              0.000e+00   0.000e+00   -54.035   -54.035     0.000     30.40

------------------------------Saturation indices-------------------------------

  Phase               SI** log IAP   log K(298 K,   1 atm)

  H2(g)           -16.06    -19.16   -3.10  H2
  H2O(g)           -1.50     -0.00    1.50  H2O
  Halite           -9.58     -8.01    1.57  NaCl
  O2(g)           -51.14    -54.03   -2.89  O2

**For a gas, SI = log10(fugacity). Fugacity = pressure * phi / 1 atm.
  For ideal gases, phi = 1.

------------------------------------
Beginning of transport calculations.
------------------------------------

-------------------------------
Equilibrating initial solutions
-------------------------------

Using solution 0.	

-----------------------------Solution composition------------------------------

	Elements           Molality       Moles

	Cl                1.000e-04   1.000e-04
	N                 1.000e-06   1.000e-06
	Na                1.000e-04   1.000e-04

----------------------------Description of solution----------------------------

                                       pH  =   6.001      Charge balance
                                       pe  =  13.251      Adjusted to redox equilibrium
      Specific Conductance (µS/cm,  25°C)  = 12
                          Density (g/cm³)  =   0.99705
                               Volume (L)  =   1.00297
                        Viscosity (mPa s)  =   0.89008
                        Activity of water  =   1.000
                 Ionic strength (mol/kgw)  =   1.010e-04
                       Mass of water (kg)  =   1.000e+00
                 Total alkalinity (eq/kg)  =  -9.993e-07
                         Temperature (°C)  =  25.00
                  Electrical balance (eq)  =  -1.135e-14
 Percent error, 100*(Cat-|An|)/(Cat+|An|)  =  -0.00
                               Iterations  =  19 (24 overall)
                                  Total H  = 1.110124e+02
                                  Total O  = 5.550622e+01

----------------------------Distribution of species----------------------------

                                               Log       Log       Log    mole V
   Species          Molality    Activity  Molality  Activity     Gamma   cm³/mol

   H+              1.010e-06   9.980e-07    -5.996    -6.001    -0.005      0.00
   OH-             1.026e-08   1.014e-08    -7.989    -7.994    -0.005     -4.13
   H2O             5.551e+01   1.000e+00     1.744    -0.000     0.000     18.07
Cl            1.000e-04
   Cl-             1.000e-04   9.884e-05    -4.000    -4.005    -0.005     18.05
   HCl             3.398e-11   3.398e-11   -10.469   -10.469     0.000     (0)  
H(0)          0.000e+00
   H2              0.000e+00   0.000e+00   -41.654   -41.654     0.000     28.61
N(-3)         0.000e+00
   NH4+            0.000e+00   0.000e+00   -52.941   -52.946    -0.005     17.87
   NH3             0.000e+00   0.000e+00   -56.189   -56.189     0.000     24.42
N(0)          7.055e-10
   N2              3.528e-10   3.528e-10    -9.453    -9.452     0.000     29.29
N(3)          1.163e-16
   NO2-            1.163e-16   1.150e-16   -15.934   -15.939    -0.005     24.95
N(5)          9.993e-07
   NO3-            9.993e-07   9.877e-07    -6.000    -6.005    -0.005     29.47
Na            1.000e-04
   Na+             1.000e-04   9.884e-05    -4.000    -4.005    -0.005     -1.51
O(0)          1.764e-09
   O2              8.819e-10   8.819e-10    -9.055    -9.055     0.000     30.40

------------------------------Saturation indices-------------------------------

  Phase               SI** log IAP   log K(298 K,   1 atm)

  H2(g)           -38.55    -41.65   -3.10  H2
  H2O(g)           -1.50     -0.00    1.50  H2O
  Halite           -9.58     -8.01    1.57  NaCl
  N2(g)            -6.28     -9.45   -3.18  N2
  NH3(g)          -57.99    -56.19    1.80  NH3
  O2(g)            -6.16     -9.05   -2.89  O2

**For a gas, SI = log10(fugacity). Fugacity = pressure * phi / 1 atm.
  For ideal gases, phi = 1.

Using solution 1.	

-----------------------------Solution composition------------------------------

	Elements           Molality       Moles

	Cl                1.000e-04   1.000e-04
	N                 1.000e-04   1.000e-04
	Na                1.000e-04   1.000e-04

----------------------------Description of solution----------------------------

                                       pH  =   4.008      Charge balance
                                       pe  =  15.815      Adjusted to redox equilibrium
      Specific Conductance (µS/cm,  25°C)  = 54
                          Density (g/cm³)  =   0.99705
                               Volume (L)  =   1.00297
                        Viscosity (mPa s)  =   0.89009
                        Activity of water  =   1.000
                 Ionic strength (mol/kgw)  =   1.999e-04
                       Mass of water (kg)  =   1.000e+00
                 Total alkalinity (eq/kg)  =  -9.987e-05
                         Temperature (°C)  =  25.00
                  Electrical balance (eq)  =  -2.079e-17
 Percent error, 100*(Cat-|An|)/(Cat+|An|)  =  -0.00
                               Iterations  =  19 (43 overall)
                                  Total H  = 1.110125e+02
                                  Total O  = 5.550652e+01

----------------------------Distribution of species----------------------------

                                               Log       Log       Log    mole V
   Species          Molality    Activity  Molality  Activity     Gamma   cm³/mol

   H+              9.986e-05   9.828e-05    -4.001    -4.008    -0.007      0.00
   OH-             1.047e-10   1.030e-10    -9.980    -9.987    -0.007     -4.12
   H2O             5.551e+01   1.000e+00     1.744    -0.000     0.000     18.07
Cl            1.000e-04
   Cl-             1.000e-04   9.838e-05    -4.000    -4.007    -0.007     18.06
   HCl             3.330e-09   3.331e-09    -8.478    -8.477     0.000     (0)  
H(0)          0.000e+00
   H2              0.000e+00   0.000e+00   -42.794   -42.794     0.000     28.61
N(-3)         0.000e+00
   NH4+            0.000e+00   0.000e+00   -51.516   -51.523    -0.007     17.87
   NH3             0.000e+00   0.000e+00   -56.760   -56.760     0.000     24.42
N(0)          1.346e-07
   N2              6.731e-08   6.731e-08    -7.172    -7.172     0.000     29.29
N(3)          8.416e-16
   NO2-            8.416e-16   8.280e-16   -15.075   -15.082    -0.007     24.95
N(5)          9.987e-05
   NO3-            9.987e-05   9.824e-05    -4.001    -4.008    -0.007     29.47
Na            1.000e-04
   Na+             1.000e-04   9.839e-05    -4.000    -4.007    -0.007     -1.50
O(0)          3.365e-07
   O2              1.683e-07   1.683e-07    -6.774    -6.774     0.000     30.40

------------------------------Saturation indices-------------------------------

  Phase               SI** log IAP   log K(298 K,   1 atm)

  H2(g)           -39.69    -42.79   -3.10  H2
  H2O(g)           -1.50     -0.00    1.50  H2O
  Halite           -9.58     -8.01    1.57  NaCl
  N2(g)            -4.00     -7.17   -3.18  N2
  NH3(g)          -58.56    -56.76    1.80  NH3
  O2(g)            -3.88     -6.77   -2.89  O2

**For a gas, SI = log10(fugacity). Fugacity = pressure * phi / 1 atm.
  For ideal gases, phi = 1.

Using solution 2.	

-----------------------------Solution composition------------------------------

	Elements           Molality       Moles

	Cl                1.000e-04   1.000e-04
	N                 1.000e-04   1.000e-04
	Na                1.000e-04   1.000e-04

----------------------------Description of solution----------------------------

                                       pH  =   4.008      Charge balance
                                       pe  =  15.815      Adjusted to redox equilibrium
      Specific Conductance (µS/cm,  25°C)  = 54
                          Density (g/cm³)  =   0.99705
                               Volume (L)  =   1.00297
                        Viscosity (mPa s)  =   0.89009
                        Activity of water  =   1.000
                 Ionic strength (mol/kgw)  =   1.999e-04
                       Mass of water (kg)  =   1.000e+00
                 Total alkalinity (eq/kg)  =  -9.987e-05
                         Temperature (°C)  =  25.00
                  Electrical balance (eq)  =  -2.079e-17
 Percent error, 100*(Cat-|An|)/(Cat+|An|)  =  -0.00
                               Iterations  =  19 (62 overall)
                                  Total H  = 1.110125e+02
                                  Total O  = 5.550652e+01

----------------------------Distribution of species----------------------------

                                               Log       Log       Log    mole V
   Species          Molality    Activity  Molality  Activity     Gamma   cm³/mol

   H+              9.986e-05   9.828e-05    -4.001    -4.008    -0.007      0.00
   OH-             1.047e-10   1.030e-10    -9.980    -9.987    -0.007     -4.12
   H2O             5.551e+01   1.000e+00     1.744    -0.000     0.000     18.07
Cl            1.000e-04
   Cl-             1.000e-04   9.838e-05    -4.000    -4.007    -0.007     18.06
   HCl             3.330e-09   3.331e-09    -8.478    -8.477     0.000     (0)  
H(0)          0.000e+00
   H2              0.000e+00   0.000e+00   -42.794   -42.794     0.000     28.61
N(-3)         0.000e+00
   NH4+            0.000e+00   0.000e+00   -51.516   -51.523    -0.007     17.87
   NH3             0.000e+00   0.000e+00   -56.760   -56.760     0.000     24.42
N(0)          1.346e-07
   N2              6.731e-08   6.731e-08    -7.172    -7.172     0.000     29.29
N(3)          8.416e-16
   NO2-            8.416e-16   8.280e-16   -15.075   -15.082    -0.007     24.95
N(5)          9.987e-05
   NO3-            9.987e-05   9.824e-05    -4.001    -4.008    -0.007     29.47
Na            1.000e-04
   Na+             1.000e-04   9.839e-05    -4.000    -4.007    -0.007     -1.50
O(0)          3.365e-07
   O2              1.683e-07   1.683e-07    -6.774    -6.774     0.000     30.40

------------------------------Saturation indices-------------------------------

  Phase               SI** log IAP   log K(298 K,   1 atm)

  H2(g)           -39.69    -42.79   -3.10  H2
  H2O(g)           -1.50     -0.00    1.50  H2O
  Halite           -9.58     -8.01    1.57  NaCl
  N2(g)            -4.00     -7.17   -3.18  N2
  NH3(g)          -58.56    -56.76    1.80  NH3
  O2(g)            -3.88     -6.77   -2.89  O2

**For a gas, SI = log10(fugacity). Fugacity = pressure * phi / 1 atm.
  For ideal gases, phi = 1.

Using solution 3.	

-----------------------------Solution composition------------------------------

	Elements           Molality       Moles

	Cl                1.000e-04   1.000e-04
	N                 1.000e-04   1.000e-04
	Na                1.000e-04   1.000e-04

----------------------------Description of solution----------------------------

                                       pH  =   4.008      Charge balance
                                       pe  =  15.815      Adjusted to redox equilibrium
      Specific Conductance (µS/cm,  25°C)  = 54
                          Density (g/cm³)  =   0.99705
                               Volume (L)  =   1.00297
                        Viscosity (mPa s)  =   0.89009
                        Activity of water  =   1.000
                 Ionic strength (mol/kgw)  =   1.999e-04
                       Mass of water (kg)  =   1.000e+00
                 Total alkalinity (eq/kg)  =  -9.987e-05
                         Temperature (°C)  =  25.00
                  Electrical balance (eq)  =  -2.079e-17
 Percent error, 100*(Cat-|An|)/(Cat+|An|)  =  -0.00
                               Iterations  =  19 (81 overall)
                                  Total H  = 1.110125e+02
                                  Total O  = 5.550652e+01

----------------------------Distribution of species----------------------------

                                               Log       Log       Log    mole V
   Species          Molality    Activity  Molality  Activity     Gamma   cm³/mol

   H+              9.986e-05   9.828e-05    -4.001    -4.008    -0.007      0.00
   OH-             1.047e-10   1.030e-10    -9.980    -9.987    -0.007     -4.12
   H2O             5.551e+01   1.000e+00     1.744    -0.000     0.000     18.07
Cl            1.000e-04
   Cl-             1.000e-04   9.838e-05    -4.000    -4.007    -0.007     18.06
   HCl             3.330e-09   3.331e-09    -8.478    -8.477     0.000     (0)  
H(0)          0.000e+00
   H2              0.000e+00   0.000e+00   -42.794   -42.794     0.000     28.61
N(-3)         0.000e+00
   NH4+            0.000e+00   0.000e+00   -51.516   -51.523    -0.007     17.87
   NH3             0.000e+00   0.000e+00   -56.760   -56.760     0.000     24.42
N(0)          1.346e-07
   N2              6.731e-08   6.731e-08    -7.172    -7.172     0.000     29.29
N(3)          8.416e-16
   NO2-            8.416e-16   8.280e-16   -15.075   -15.082    -0.007     24.95
N(5)          9.987e-05
   NO3-            9.987e-05   9.824e-05    -4.001    -4.008    -0.007     29.47
Na            1.000e-04
   Na+             1.000e-04   9.839e-05    -4.000    -4.007    -0.007     -1.50
O(0)          3.365e-07
   O2              1.683e-07   1.683e-07    -6.774    -6.774     0.000     30.40

------------------------------Saturation indices-------------------------------

  Phase               SI** log IAP   log K(298 K,   1 atm)

  H2(g)           -39.69    -42.79   -3.10  H2
  H2O(g)           -1.50     -0.00    1.50  H2O
  Halite           -9.58     -8.01    1.57  NaCl
  N2(g)            -4.00     -7.17   -3.18  N2
  NH3(g)          -58.56    -56.76    1.80  NH3
  O2(g)            -3.88     -6.77   -2.89  O2

**For a gas, SI = log10(fugacity). Fugacity = pressure * phi / 1 atm.
  For ideal gases, phi = 1.

Using solution 4.	

-----------------------------Solution composition------------------------------

	Elements           Molality       Moles

	Cl                1.000e-04   1.000e-04
	N                 1.000e-04   1.000e-04
	Na                1.000e-04   1.000e-04

----------------------------Description of solution----------------------------

                                       pH  =   4.008      Charge balance
                                       pe  =  15.815      Adjusted to redox equilibrium
      Specific Conductance (µS/cm,  25°C)  = 54
                          Density (g/cm³)  =   0.99705
                               Volume (L)  =   1.00297
                        Viscosity (mPa s)  =   0.89009
                        Activity of water  =   1.000
                 Ionic strength (mol/kgw)  =   1.999e-04
                       Mass of water (kg)  =   1.000e+00
                 Total alkalinity (eq/kg)  =  -9.987e-05
                         Temperature (°C)  =  25.00
                  Electrical balance (eq)  =  -2.079e-17
 Percent error, 100*(Cat-|An|)/(Cat+|An|)  =  -0.00
                               Iterations  =  19 (100 overall)
                                  Total H  = 1.110125e+02
                                  Total O  = 5.550652e+01

----------------------------Distribution of species----------------------------

                                               Log       Log       Log    mole V
   Species          Molality    Activity  Molality  Activity     Gamma   cm³/mol

   H+              9.986e-05   9.828e-05    -4.001    -4.008    -0.007      0.00
   OH-             1.047e-10   1.030e-10    -9.980    -9.987    -0.007     -4.12
   H2O             5.551e+01   1.000e+00     1.744    -0.000     0.000     18.07
Cl            1.000e-04
   Cl-             1.000e-04   9.838e-05    -4.000    -4.007    -0.007     18.06
   HCl             3.330e-09   3.331e-09    -8.478    -8.477     0.000     (0)  
H(0)          0.000e+00
   H2              0.000e+00   0.000e+00   -42.794   -42.794     0.000     28.61
N(-3)         0.000e+00
   NH4+            0.000e+00   0.000e+00   -51.516   -51.523    -0.007     17.87
   NH3             0.000e+00   0.000e+00   -56.760   -56.760     0.000     24.42
N(0)          1.346e-07
   N2              6.731e-08   6.731e-08    -7.172    -7.172     0.000     29.29
N(3)          8.416e-16
   NO2-            8.416e-16   8.280e-16   -15.075   -15.082    -0.007     24.95
N(5)          9.987e-05
   NO3-            9.987e-05   9.824e-05    -4.001    -4.008    -0.007     29.47
Na            1.000e-04
   Na+             1.000e-04   9.839e-05    -4.000    -4.007    -0.007     -1.50
O(0)          3.365e-07
   O2              1.683e-07   1.683e-07    -6.774    -6.774     0.000     30.40

------------------------------Saturation indices-------------------------------

  Phase               SI** log IAP   log K(298 K,   1 atm)

  H2(g)           -39.69    -42.79   -3.10  H2
  H2O(g)           -1.50     -0.00    1.50  H2O
  Halite           -9.58     -8.01    1.57  NaCl
  N2(g)            -4.00     -7.17   -3.18  N2
  NH3(g)          -58.56    -56.76    1.80  NH3
  O2(g)            -3.88     -6.77   -2.89  O2

**For a gas, SI = log10(fugacity). Fugacity = pressure * phi / 1 atm.
  For ideal gases, phi = 1.

Using solution 5.	

-----------------------------Solution composition------------------------------

	Elements           Molality       Moles

	Cl                1.000e-04   1.000e-04
	N                 1.000e-04   1.000e-04
	Na                1.000e-04   1.000e-04

----------------------------Description of solution----------------------------

                                       pH  =   4.008      Charge balance
                                       pe  =  15.815      Adjusted to redox equilibrium
      Specific Conductance (µS/cm,  25°C)  = 54
                          Density (g/cm³)  =   0.99705
                               Volume (L)  =   1.00297
                        Viscosity (mPa s)  =   0.89009
                        Activity of water  =   1.000
                 Ionic strength (mol/kgw)  =   1.999e-04
                       Mass of water (kg)  =   1.000e+00
                 Total alkalinity (eq/kg)  =  -9.987e-05
                         Temperature (°C)  =  25.00
                  Electrical balance (eq)  =  -2.079e-17
 Percent error, 100*(Cat-|An|)/(Cat+|An|)  =  -0.00
                               Iterations  =  19 (119 overall)
                                  Total H  = 1.110125e+02
                                  Total O  = 5.550652e+01

----------------------------Distribution of species----------------------------

                                               Log       Log       Log    mole V
   Species          Molality    Activity  Molality  Activity     Gamma   cm³/mol

   H+              9.986e-05   9.828e-05    -4.001    -4.008    -0.007      0.00
   OH-             1.047e-10   1.030e-10    -9.980    -9.987    -0.007     -4.12
   H2O             5.551e+01   1.000e+00     1.744    -0.000     0.000     18.07
Cl            1.000e-04
   Cl-             1.000e-04   9.838e-05    -4.000    -4.007    -0.007     18.06
   HCl             3.330e-09   3.331e-09    -8.478    -8.477     0.000     (0)  
H(0)          0.000e+00
   H2              0.000e+00   0.000e+00   -42.794   -42.794     0.000     28.61
N(-3)         0.000e+00
   NH4+            0.000e+00   0.000e+00   -51.516   -51.523    -0.007     17.87
   NH3             0.000e+00   0.000e+00   -56.760   -56.760     0.000     24.42
N(0)          1.346e-07
   N2              6.731e-08   6.731e-08    -7.172    -7.172     0.000     29.29
N(3)          8.416e-16
   NO2-            8.416e-16   8.280e-16   -15.075   -15.082    -0.007     24.95
N(5)          9.987e-05
   NO3-            9.987e-05   9.824e-05    -4.001    -4.008    -0.007     29.47
Na            1.000e-04
   Na+             1.000e-04   9.839e-05    -4.000    -4.007    -0.007     -1.50
O(0)          3.365e-07
   O2              1.683e-07   1.683e-07    -6.774    -6.774     0.000     30.40

------------------------------Saturation indices-------------------------------

  Phase               SI** log IAP   log K(298 K,   1 atm)

  H2(g)           -39.69    -42.79   -3.10  H2
  H2O(g)           -1.50     -0.00    1.50  H2O
  Halite           -9.58     -8.01    1.57  NaCl
  N2(g)            -4.00     -7.17   -3.18  N2
  NH3(g)          -58.56    -56.76    1.80  NH3
  O2(g)            -3.88     -6.77   -2.89  O2

**For a gas, SI = log10(fugacity). Fugacity = pressure * phi / 1 atm.
  For ideal gases, phi = 1.

Using solution 6.	

-----------------------------Solution composition------------------------------

	Elements           Molality       Moles

	Cl                1.000e-04   1.000e-04
	N                 1.000e-04   1.000e-04
	Na                1.000e-04   1.000e-04

----------------------------Description of solution----------------------------

                                       pH  =   4.008      Charge balance
                                       pe  =  15.815      Adjusted to redox equilibrium
      Specific Conductance (µS/cm,  25°C)  = 54
                          Density (g/cm³)  =   0.99705
                               Volume (L)  =   1.00297
                        Viscosity (mPa s)  =   0.89009
                        Activity of water  =   1.000
                 Ionic strength (mol/kgw)  =   1.999e-04
                       Mass of water (kg)  =   1.000e+00
                 Total alkalinity (eq/kg)  =  -9.987e-05
                         Temperature (°C)  =  25.00
                  Electrical balance (eq)  =  -2.079e-17
 Percent error, 100*(Cat-|An|)/(Cat+|An|)  =  -0.00
                               Iterations  =  19 (138 overall)
                                  Total H  = 1.110125e+02
                                  Total O  = 5.550652e+01

----------------------------Distribution of species----------------------------

                                               Log       Log       Log    mole V
   Species          Molality    Activity  Molality  Activity     Gamma   cm³/mol

   H+              9.986e-05   9.828e-05    -4.001    -4.008    -0.007      0.00
   OH-             1.047e-10   1.030e-10    -9.980    -9.987    -0.007     -4.12
   H2O             5.551e+01   1.000e+00     1.744    -0.000     0.000     18.07
Cl            1.000e-04
   Cl-             1.000e-04   9.838e-05    -4.000    -4.007    -0.007     18.06
   HCl             3.330e-09   3.331e-09    -8.478    -8.477     0.000     (0)  
H(0)          0.000e+00
   H2              0.000e+00   0.000e+00   -42.794   -42.794     0.000     28.61
N(-3)         0.000e+00
   NH4+            0.000e+00   0.000e+00   -51.516   -51.523    -0.007     17.87
   NH3             0.000e+00   0.000e+00   -56.760   -56.760     0.000     24.42
N(0)          1.346e-07
   N2              6.731e-08   6.731e-08    -7.172    -7.172     0.000     29.29
N(3)          8.416e-16
   NO2-            8.416e-16   8.280e-16   -15.075   -15.082    -0.007     24.95
N(5)          9.987e-05
   NO3-            9.987e-05   9.824e-05    -4.001    -4.008    -0.007     29.47
Na            1.000e-04
   Na+             1.000e-04   9.839e-05    -4.000    -4.007    -0.007     -1.50
O(0)          3.365e-07
   O2              1.683e-07   1.683e-07    -6.774    -6.774     0.000     30.40

------------------------------Saturation indices-------------------------------

  Phase               SI** log IAP   log K(298 K,   1 atm)

  H2(g)           -39.69    -42.79   -3.10  H2
  H2O(g)           -1.50     -0.00    1.50  H2O
  Halite           -9.58     -8.01    1.57  NaCl
  N2(g)            -4.00     -7.17   -3.18  N2
  NH3(g)          -58.56    -56.76    1.80  NH3
  O2(g)            -3.88     -6.77   -2.89  O2

**For a gas, SI = log10(fugacity). Fugacity = pressure * phi / 1 atm.
  For ideal gases, phi = 1.

Using solution 7.	

-----------------------------Solution composition------------------------------

	Elements           Molality       Moles

	Cl                1.000e-04   1.000e-04
	N                 1.000e-04   1.000e-04
	Na                1.000e-04   1.000e-04

----------------------------Description of solution----------------------------

                                       pH  =   4.008      Charge balance
                                       pe  =  15.815      Adjusted to redox equilibrium
      Specific Conductance (µS/cm,  25°C)  = 54
                          Density (g/cm³)  =   0.99705
                               Volume (L)  =   1.00297
                        Viscosity (mPa s)  =   0.89009
                        Activity of water  =   1.000
                 Ionic strength (mol/kgw)  =   1.999e-04
                       Mass of water (kg)  =   1.000e+00
                 Total alkalinity (eq/kg)  =  -9.987e-05
                         Temperature (°C)  =  25.00
                  Electrical balance (eq)  =  -2.079e-17
 Percent error, 100*(Cat-|An|)/(Cat+|An|)  =  -0.00
                               Iterations  =  19 (157 overall)
                                  Total H  = 1.110125e+02
                                  Total O  = 5.550652e+01

----------------------------Distribution of species----------------------------

                                               Log       Log       Log    mole V
   Species          Molality    Activity  Molality  Activity     Gamma   cm³/mol

   H+              9.986e-05   9.828e-05    -4.001    -4.008    -0.007      0.00
   OH-             1.047e-10   1.030e-10    -9.980    -9.987    -0.007     -4.12
   H2O             5.551e+01   1.000e+00     1.744    -0.000     0.000     18.07
Cl            1.000e-04
   Cl-             1.000e-04   9.838e-05    -4.000    -4.007    -0.007     18.06
   HCl             3.330e-09   3.331e-09    -8.478    -8.477     0.000     (0)  
H(0)          0.000e+00
   H2              0.000e+00   0.000e+00   -42.794   -42.794     0.000     28.61
N(-3)         0.000e+00
   NH4+            0.000e+00   0.000e+00   -51.516   -51.523    -0.007     17.87
   NH3             0.000e+00   0.000e+00   -56.760   -56.760     0.000     24.42
N(0)          1.346e-07
   N2              6.731e-08   6.731e-08    -7.172    -7.172     0.000     29.29
N(3)          8.416e-16
   NO2-            8.416e-16   8.280e-16   -15.075   -15.082    -0.007     24.95
N(5)          9.987e-05
   NO3-            9.987e-05   9.824e-05    -4.001    -4.008    -0.007     29.47
Na            1.000e-04
   Na+             1.000e-04   9.839e-05    -4.000    -4.007    -0.007     -1.50
O(0)          3.365e-07
   O2              1.683e-07   1.683e-07    -6.774    -6.774     0.000     30.40

------------------------------Saturation indices-------------------------------

  Phase               SI** log IAP   log K(298 K,   1 atm)

  H2(g)           -39.69    -42.79   -3.10  H2
  H2O(g)           -1.50     -0.00    1.50  H2O
  Halite           -9.58     -8.01    1.57  NaCl
  N2(g)            -4.00     -7.17   -3.18  N2
  NH3(g)          -58.56    -56.76    1.80  NH3
  O2(g)            -3.88     -6.77   -2.89  O2

**For a gas, SI = log10(fugacity). Fugacity = pressure * phi / 1 atm.
  For ideal gases, phi = 1.

Using solution 8.	

-----------------------------Solution composition------------------------------

	Elements           Molality       Moles

	Cl                1.000e-04   1.000e-04
	N                 1.000e-04   1.000e-04
	Na                1.000e-04   1.000e-04

----------------------------Description of solution----------------------------

                                       pH  =   4.008      Charge balance
                                       pe  =  15.815      Adjusted to redox equilibrium
      Specific Conductance (µS/cm,  25°C)  = 54
                          Density (g/cm³)  =   0.99705
                               Volume (L)  =   1.00297
                        Viscosity (mPa s)  =   0.89009
                        Activity of water  =   1.000
                 Ionic strength (mol/kgw)  =   1.999e-04
                       Mass of water (kg)  =   1.000e+00
                 Total alkalinity (eq/kg)  =  -9.987e-05
                         Temperature (°C)  =  25.00
                  Electrical balance (eq)  =  -2.079e-17
 Percent error, 100*(Cat-|An|)/(Cat+|An|)  =  -0.00
                               Iterations  =  19 (176 overall)
                                  Total H  = 1.110125e+02
                                  Total O  = 5.550652e+01

----------------------------Distribution of species----------------------------

                                               Log       Log       Log    mole V
   Species          Molality    Activity  Molality  Activity     Gamma   cm³/mol

   H+              9.986e-05   9.828e-05    -4.001    -4.008    -0.007      0.00
   OH-             1.047e-10   1.030e-10    -9.980    -9.987    -0.007     -4.12
   H2O             5.551e+01   1.000e+00     1.744    -0.000     0.000     18.07
Cl            1.000e-04
   Cl-             1.000e-04   9.838e-05    -4.000    -4.007    -0.007     18.06
   HCl             3.330e-09   3.331e-09    -8.478    -8.477     0.000     (0)  
H(0)          0.000e+00
   H2              0.000e+00   0.000e+00   -42.794   -42.794     0.000     28.61
N(-3)         0.000e+00
   NH4+            0.000e+00   0.000e+00   -51.516   -51.523    -0.007     17.87
   NH3             0.000e+00   0.000e+00   -56.760   -56.760     0.000     24.42
N(0)          1.346e-07
   N2              6.731e-08   6.731e-08    -7.172    -7.172     0.000     29.29
N(3)          8.416e-16
   NO2-            8.416e-16   8.280e-16   -15.075   -15.082    -0.007     24.95
N(5)          9.987e-05
   NO3-            9.987e-05   9.824e-05    -4.001    -4.008    -0.007     29.47
Na            1.000e-04
   Na+             1.000e-04   9.839e-05    -4.000    -4.007    -0.007     -1.50
O(0)          3.365e-07
   O2              1.683e-07   1.683e-07    -6.774    -6.774     0.000     30.40

------------------------------Saturation indices-------------------------------

  Phase               SI** log IAP   log K(298 K,   1 atm)

  H2(g)           -39.69    -42.79   -3.10  H2
  H2O(g)           -1.50     -0.00    1.50  H2O
  Halite           -9.58     -8.01    1.57  NaCl
  N2(g)            -4.00     -7.17   -3.18  N2
  NH3(g)          -58.56    -56.76    1.80  NH3
  O2(g)            -3.88     -6.77   -2.89  O2

**For a gas, SI = log10(fugacity). Fugacity = pressure * phi / 1 atm.
  For ideal gases, phi = 1.

Using solution 9.	

-----------------------------Solution composition------------------------------

	Elements           Molality       Moles

	Cl                1.000e-04   1.000e-04
	N                 1.000e-04   1.000e-04
	Na                1.000e-04   1.000e-04

----------------------------Description of solution----------------------------

                                       pH  =   4.008      Charge balance
                                       pe  =  15.815      Adjusted to redox equilibrium
      Specific Conductance (µS/cm,  25°C)  = 54
                          Density (g/cm³)  =   0.99705
                               Volume (L)  =   1.00297
                        Viscosity (mPa s)  =   0.89009
                        Activity of water  =   1.000
                 Ionic strength (mol/kgw)  =   1.999e-04
                       Mass of water (kg)  =   1.000e+00
                 Total alkalinity (eq/kg)  =  -9.987e-05
                         Temperature (°C)  =  25.00
                  Electrical balance (eq)  =  -2.079e-17
 Percent error, 100*(Cat-|An|)/(Cat+|An|)  =  -0.00
                               Iterations  =  19 (195 overall)
                                  Total H  = 1.110125e+02
                                  Total O  = 5.550652e+01

----------------------------Distribution of species----------------------------

                                               Log       Log       Log    mole V
   Species          Molality    Activity  Molality  Activity     Gamma   cm³/mol

   H+              9.986e-05   9.828e-05    -4.001    -4.008    -0.007      0.00
   OH-             1.047e-10   1.030e-10    -9.980    -9.987    -0.007     -4.12
   H2O             5.551e+01   1.000e+00     1.744    -0.000     0.000     18.07
Cl            1.000e-04
   Cl-             1.000e-04   9.838e-05    -4.000    -4.007    -0.007     18.06
   HCl             3.330e-09   3.331e-09    -8.478    -8.477     0.000     (0)  
H(0)          0.000e+00
   H2              0.000e+00   0.000e+00   -42.794   -42.794     0.000     28.61
N(-3)         0.000e+00
   NH4+            0.000e+00   0.000e+00   -51.516   -51.523    -0.007     17.87
   NH3             0.000e+00   0.000e+00   -56.760   -56.760     0.000     24.42
N(0)          1.346e-07
   N2              6.731e-08   6.731e-08    -7.172    -7.172     0.000     29.29
N(3)          8.416e-16
   NO2-            8.416e-16   8.280e-16   -15.075   -15.082    -0.007     24.95
N(5)          9.987e-05
   NO3-            9.987e-05   9.824e-05    -4.001    -4.008    -0.007     29.47
Na            1.000e-04
   Na+             1.000e-04   9.839e-05    -4.000    -4.007    -0.007     -1.50
O(0)          3.365e-07
   O2              1.683e-07   1.683e-07    -6.774    -6.774     0.000     30.40

------------------------------Saturation indices-------------------------------

  Phase               SI** log IAP   log K(298 K,   1 atm)

  H2(g)           -39.69    -42.79   -3.10  H2
  H2O(g)           -1.50     -0.00    1.50  H2O
  Halite           -9.58     -8.01    1.57  NaCl
  N2(g)            -4.00     -7.17   -3.18  N2
  NH3(g)          -58.56    -56.76    1.80  NH3
  O2(g)            -3.88     -6.77   -2.89  O2

**For a gas, SI = log10(fugacity). Fugacity = pressure * phi / 1 atm.
  For ideal gases, phi = 1.

Using solution 10.	

-----------------------------Solution composition------------------------------

	Elements           Molality       Moles

	Cl                1.000e-04   1.000e-04
	N                 1.000e-04   1.000e-04
	Na                1.000e-04   1.000e-04

----------------------------Description of solution----------------------------

                                       pH  =   4.008      Charge balance
                                       pe  =  15.815      Adjusted to redox equilibrium
      Specific Conductance (µS/cm,  25°C)  = 54
                          Density (g/cm³)  =   0.99705
                               Volume (L)  =   1.00297
                        Viscosity (mPa s)  =   0.89009
                        Activity of water  =   1.000
                 Ionic strength (mol/kgw)  =   1.999e-04
                       Mass of water (kg)  =   1.000e+00
                 Total alkalinity (eq/kg)  =  -9.987e-05
                         Temperature (°C)  =  25.00
                  Electrical balance (eq)  =  -2.079e-17
 Percent error, 100*(Cat-|An|)/(Cat+|An|)  =  -0.00
                               Iterations  =  19 (214 overall)
                                  Total H  = 1.110125e+02
                                  Total O  = 5.550652e+01

----------------------------Distribution of species----------------------------

                                               Log       Log       Log    mole V
   Species          Molality    Activity  Molality  Activity     Gamma   cm³/mol

   H+              9.986e-05   9.828e-05    -4.001    -4.008    -0.007      0.00
   OH-             1.047e-10   1.030e-10    -9.980    -9.987    -0.007     -4.12
   H2O             5.551e+01   1.000e+00     1.744    -0.000     0.000     18.07
Cl            1.000e-04
   Cl-             1.000e-04   9.838e-05    -4.000    -4.007    -0.007     18.06
   HCl             3.330e-09   3.331e-09    -8.478    -8.477     0.000     (0)  
H(0)          0.000e+00
   H2              0.000e+00   0.000e+00   -42.794   -42.794     0.000     28.61
N(-3)         0.000e+00
   NH4+            0.000e+00   0.000e+00   -51.516   -51.523    -0.007     17.87
   NH3             0.000e+00   0.000e+00   -56.760   -56.760     0.000     24.42
N(0)          1.346e-07
   N2              6.731e-08   6.731e-08    -7.172    -7.172     0.000     29.29
N(3)          8.416e-16
   NO2-            8.416e-16   8.280e-16   -15.075   -15.082    -0.007     24.95
N(5)          9.987e-05
   NO3-            9.987e-05   9.824e-05    -4.001    -4.008    -0.007     29.47
Na            1.000e-04
   Na+             1.000e-04   9.839e-05    -4.000    -4.007    -0.007     -1.50
O(0)          3.365e-07
   O2              1.683e-07   1.683e-07    -6.774    -6.774     0.000     30.40

------------------------------Saturation indices-------------------------------

  Phase               SI** log IAP   log K(298 K,   1 atm)

  H2(g)           -39.69    -42.79   -3.10  H2
  H2O(g)           -1.50     -0.00    1.50  H2O
  Halite           -9.58     -8.01    1.57  NaCl
  N2(g)            -4.00     -7.17   -3.18  N2
  NH3(g)          -58.56    -56.76    1.80  NH3
  O2(g)            -3.88     -6.77   -2.89  O2

**For a gas, SI = log10(fugacity). Fugacity = pressure * phi / 1 atm.
  For ideal gases, phi = 1.

Using solution 11.	

-----------------------------Solution composition------------------------------

	Elements           Molality       Moles

	Cl                1.000e-04   1.000e-04
	N                 1.000e-04   1.000e-04
	Na                1.000e-04   1.000e-04

----------------------------Description of solution----------------------------

                                       pH  =   4.008      Charge balance
                                       pe  =  15.815      Adjusted to redox equilibrium
      Specific Conductance (µS/cm,  25°C)  = 54
                          Density (g/cm³)  =   0.99705
                               Volume (L)  =   1.00297
                        Viscosity (mPa s)  =   0.89009
                        Activity of water  =   1.000
                 Ionic strength (mol/kgw)  =   1.999e-04
                       Mass of water (kg)  =   1.000e+00
                 Total alkalinity (eq/kg)  =  -9.987e-05
                         Temperature (°C)  =  25.00
                  Electrical balance (eq)  =  -2.079e-17
 Percent error, 100*(Cat-|An|)/(Cat+|An|)  =  -0.00
                               Iterations  =  19 (233 overall)
                                  Total H  = 1.110125e+02
                                  Total O  = 5.550652e+01

----------------------------Distribution of species----------------------------

                                               Log       Log       Log    mole V
   Species          Molality    Activity  Molality  Activity     Gamma   cm³/mol

   H+              9.986e-05   9.828e-05    -4.001    -4.008    -0.007      0.00
   OH-             1.047e-10   1.030e-10    -9.980    -9.987    -0.007     -4.12
   H2O             5.551e+01   1.000e+00     1.744    -0.000     0.000     18.07
Cl            1.000e-04
   Cl-             1.000e-04   9.838e-05    -4.000    -4.007    -0.007     18.06
   HCl             3.330e-09   3.331e-09    -8.478    -8.477     0.000     (0)  
H(0)          0.000e+00
   H2              0.000e+00   0.000e+00   -42.794   -42.794     0.000     28.61
N(-3)         0.000e+00
   NH4+            0.000e+00   0.000e+00   -51.516   -51.523    -0.007     17.87
   NH3             0.000e+00   0.000e+00   -56.760   -56.760     0.000     24.42
N(0)          1.346e-07
   N2              6.731e-08   6.731e-08    -7.172    -7.172     0.000     29.29
N(3)          8.416e-16
   NO2-            8.416e-16   8.280e-16   -15.075   -15.082    -0.007     24.95
N(5)          9.987e-05
   NO3-            9.987e-05   9.824e-05    -4.001    -4.008    -0.007     29.47
Na            1.000e-04
   Na+             1.000e-04   9.839e-05    -4.000    -4.007    -0.007     -1.50
O(0)          3.365e-07
   O2              1.683e-07   1.683e-07    -6.774    -6.774     0.000     30.40

------------------------------Saturation indices-------------------------------

  Phase               SI** log IAP   log K(298 K,   1 atm)

  H2(g)           -39.69    -42.79   -3.10  H2
  H2O(g)           -1.50     -0.00    1.50  H2O
  Halite           -9.58     -8.01    1.57  NaCl
  N2(g)            -4.00     -7.17   -3.18  N2
  NH3(g)          -58.56    -56.76    1.80  NH3
  O2(g)            -3.88     -6.77   -2.89  O2

**For a gas, SI = log10(fugacity). Fugacity = pressure * phi / 1 atm.
  For ideal gases, phi = 1.


Calculating transport: 10 (mobile) cells, 1 shifts, 46 mixruns...

Transport step   1. Multicomponent diffusion run  46.

Using solution 0.	Solution after simulation 1.

-----------------------------Solution composition------------------------------

	Elements           Molality       Moles

	Cl                1.000e-04   1.000e-04
	N                 1.000e-06   1.000e-06
	Na                1.000e-04   1.000e-04

----------------------------Description of solution----------------------------

                                       pH  =   6.001      Charge balance
                                       pe  =  13.251      Adjusted to redox equilibrium
      Specific Conductance (µS/cm,  25°C)  = 12
                          Density (g/cm³)  =   0.99705
                               Volume (L)  =   1.00297
                        Viscosity (mPa s)  =   0.89008
                        Activity of water  =   1.000
                 Ionic strength (mol/kgw)  =   1.010e-04
                       Mass of water (kg)  =   1.000e+00
                 Total alkalinity (eq/kg)  =  -9.993e-07
                         Temperature (°C)  =  25.00
                  Electrical balance (eq)  =  -1.138e-14
 Percent error, 100*(Cat-|An|)/(Cat+|An|)  =  -0.00
                               Iterations  =   1
                                  Total H  = 1.110124e+02
                                  Total O  = 5.550622e+01

----------------------------Distribution of species----------------------------

                                               Log       Log       Log    mole V
   Species          Molality    Activity  Molality  Activity     Gamma   cm³/mol

   H+              1.010e-06   9.980e-07    -5.996    -6.001    -0.005      0.00
   OH-             1.026e-08   1.014e-08    -7.989    -7.994    -0.005     -4.13
   H2O             5.551e+01   1.000e+00     1.744    -0.000     0.000     18.07
Cl            1.000e-04
   Cl-             1.000e-04   9.884e-05    -4.000    -4.005    -0.005     18.05
   HCl             3.398e-11   3.398e-11   -10.469   -10.469     0.000     (0)  
H(0)          0.000e+00
   H2              0.000e+00   0.000e+00   -41.654   -41.654     0.000     28.61
N(-3)         0.000e+00
   NH4+            0.000e+00   0.000e+00   -52.941   -52.946    -0.005     17.87
   NH3             0.000e+00   0.000e+00   -56.189   -56.189     0.000     24.42
N(0)          7.055e-10
   N2              3.528e-10   3.528e-10    -9.453    -9.452     0.000     29.29
N(3)          1.163e-16
   NO2-            1.163e-16   1.150e-16   -15.934   -15.939    -0.005     24.95
N(5)          9.993e-07
   NO3-            9.993e-07   9.877e-07    -6.000    -6.005    -0.005     29.47
Na            1.000e-04
   Na+             1.000e-04   9.884e-05    -4.000    -4.005    -0.005     -1.51
O(0)          1.764e-09
   O2              8.819e-10   8.819e-10    -9.055    -9.055     0.000     30.40

------------------------------Saturation indices-------------------------------

  Phase               SI** log IAP   log K(298 K,   1 atm)

  H2(g)           -38.55    -41.65   -3.10  H2
  H2O(g)           -1.50     -0.00    1.50  H2O
  Halite           -9.58     -8.01    1.57  NaCl
  N2(g)            -6.28     -9.45   -3.18  N2
  NH3(g)          -57.99    -56.19    1.80  NH3
  O2(g)            -6.16     -9.05   -2.89  O2

**For a gas, SI = log10(fugacity). Fugacity = pressure * phi / 1 atm.
  For ideal gases, phi = 1.

Using mix 1.	

Mixture 1.	

	  0.000e+00 Solution 0	Solution after simulation 1.                           
	  1.000e+00 Solution 1	Solution after simulation 1.                           
	  0.000e+00 Solution 2	Solution after simulation 1.                           

-----------------------------Solution composition------------------------------

	Elements           Molality       Moles

	Cl                9.294e-05   9.294e-05
	N                 2.231e-05   2.231e-05
	Na                1.062e-04   1.062e-04

----------------------------Description of solution----------------------------

                                       pH  =   5.048      Charge balance
                                       pe  =  14.531      Adjusted to redox equilibrium
      Specific Conductance (µS/cm,  25°C)  = 16
                          Density (g/cm³)  =   0.99705
                               Volume (L)  =   1.00297
                        Viscosity (mPa s)  =   0.89009
                        Activity of water  =   1.000
                 Ionic strength (mol/kgw)  =   1.152e-04
                       Mass of water (kg)  =   1.000e+00
                 Total alkalinity (eq/kg)  =  -9.059e-06
                         Temperature (°C)  =  25.00
                  Electrical balance (eq)  =  -3.069e-13
 Percent error, 100*(Cat-|An|)/(Cat+|An|)  =  -0.00
                               Iterations  =   2
                                  Total H  = 1.110124e+02
                                  Total O  = 5.550628e+01

----------------------------Distribution of species----------------------------

                                               Log       Log       Log    mole V
   Species          Molality    Activity  Molality  Activity     Gamma   cm³/mol

   H+              9.060e-06   8.950e-06    -5.043    -5.048    -0.005      0.00
   OH-             1.145e-09   1.131e-09    -8.941    -8.947    -0.005     -4.13
   H2O             5.551e+01   1.000e+00     1.744    -0.000     0.000     18.07
Cl            9.294e-05
   Cl-             9.294e-05   9.179e-05    -4.032    -4.037    -0.005     18.05
   HCl             2.829e-10   2.830e-10    -9.548    -9.548     0.000     (0)  
H(0)          0.000e+00
   H2              0.000e+00   0.000e+00   -42.308   -42.308     0.000     28.61
N(-3)         0.000e+00
   NH4+            0.000e+00   0.000e+00   -52.302   -52.307    -0.005     17.87
   NH3             0.000e+00   0.000e+00   -56.503   -56.503     0.000     24.42
N(0)          1.520e-08
   N2              7.598e-09   7.599e-09    -8.119    -8.119     0.000     29.29
N(3)          5.762e-16
   NO2-            5.762e-16   5.691e-16   -15.239   -15.245    -0.005     24.95
N(5)          2.230e-05
   NO3-            2.230e-05   2.202e-05    -4.652    -4.657    -0.005     29.47
Na            1.062e-04
   Na+             1.062e-04   1.049e-04    -3.974    -3.979    -0.005     -1.51
O(0)          3.580e-08
   O2              1.790e-08   1.790e-08    -7.747    -7.747     0.000     30.40

------------------------------Saturation indices-------------------------------

  Phase               SI** log IAP   log K(298 K,   1 atm)

  H2(g)           -39.21    -42.31   -3.10  H2
  H2O(g)           -1.50     -0.00    1.50  H2O
  Halite           -9.59     -8.02    1.57  NaCl
  N2(g)            -4.94     -8.12   -3.18  N2
  NH3(g)          -58.30    -56.50    1.80  NH3
  O2(g)            -4.85     -7.75   -2.89  O2

**For a gas, SI = log10(fugacity). Fugacity = pressure * phi / 1 atm.
  For ideal gases, phi = 1.

Using mix 2.	

Mixture 2.	

	  0.000e+00 Solution 1	Solution after simulation 1.                           
	  1.000e+00 Solution 2	Solution after simulation 1.                           
	  0.000e+00 Solution 3	Solution after simulation 1.                           

-----------------------------Solution composition------------------------------

	Elements           Molality       Moles

	Cl                8.640e-05   8.640e-05
	N                 5.421e-05   5.421e-05
	Na                1.129e-04   1.129e-04

----------------------------Description of solution----------------------------

                                       pH  =   4.564      Charge balance
                                       pe  =  15.139      Adjusted to redox equilibrium
      Specific Conductance (µS/cm,  25°C)  = 25
                          Density (g/cm³)  =   0.99705
                               Volume (L)  =   1.00297
                        Viscosity (mPa s)  =   0.89009
                        Activity of water  =   1.000
                 Ionic strength (mol/kgw)  =   1.406e-04
                       Mass of water (kg)  =   1.000e+00
                 Total alkalinity (eq/kg)  =  -2.766e-05
                         Temperature (°C)  =  25.00
                  Electrical balance (eq)  =   8.737e-12
 Percent error, 100*(Cat-|An|)/(Cat+|An|)  =   0.00
                               Iterations  =   2
                                  Total H  = 1.110125e+02
                                  Total O  = 5.550638e+01

----------------------------Distribution of species----------------------------

                                               Log       Log       Log    mole V
   Species          Molality    Activity  Molality  Activity     Gamma   cm³/mol

   H+              2.766e-05   2.729e-05    -4.558    -4.564    -0.006      0.00
   OH-             3.760e-10   3.709e-10    -9.425    -9.431    -0.006     -4.13
   H2O             5.551e+01   1.000e+00     1.744    -0.000     0.000     18.07
Cl            8.640e-05
   Cl-             8.640e-05   8.522e-05    -4.064    -4.069    -0.006     18.06
   HCl             8.011e-10   8.012e-10    -9.096    -9.096     0.000     (0)  
H(0)          0.000e+00
   H2              0.000e+00   0.000e+00   -42.556   -42.556     0.000     28.61
N(-3)         0.000e+00
   NH4+            0.000e+00   0.000e+00   -51.940   -51.946    -0.006     17.87
   NH3             0.000e+00   0.000e+00   -56.626   -56.626     0.000     24.42
N(0)          4.784e-08
   N2              2.392e-08   2.392e-08    -7.621    -7.621     0.000     29.29
N(3)          7.906e-16
   NO2-            7.906e-16   7.798e-16   -15.102   -15.108    -0.006     24.95
N(5)          5.417e-05
   NO3-            5.417e-05   5.343e-05    -4.266    -4.272    -0.006     29.47
Na            1.129e-04
   Na+             1.129e-04   1.114e-04    -3.947    -3.953    -0.006     -1.51
O(0)          1.122e-07
   O2              5.610e-08   5.610e-08    -7.251    -7.251     0.000     30.40

------------------------------Saturation indices-------------------------------

  Phase               SI** log IAP   log K(298 K,   1 atm)

  H2(g)           -39.45    -42.56   -3.10  H2
  H2O(g)           -1.50     -0.00    1.50  H2O
  Halite           -9.59     -8.02    1.57  NaCl
  N2(g)            -4.45     -7.62   -3.18  N2
  NH3(g)          -58.42    -56.63    1.80  NH3
  O2(g)            -4.36     -7.25   -2.89  O2

**For a gas, SI = log10(fugacity). Fugacity = pressure * phi / 1 atm.
  For ideal gases, phi = 1.

Using mix 3.	

Mixture 3.	

	  0.000e+00 Solution 2	Solution after simulation 1.                           
	  1.000e+00 Solution 3	Solution after simulation 1.                           
	  0.000e+00 Solution 4	Solution after simulation 1.                           

-----------------------------Solution composition------------------------------

	Elements           Molality       Moles

	Cl                8.625e-05   8.625e-05
	N                 7.384e-05   7.384e-05
	Na                1.127e-04   1.127e-04

----------------------------Description of solution----------------------------

                                       pH  =   4.331      Charge balance
                                       pe  =  15.425      Adjusted to redox equilibrium
      Specific Conductance (µS/cm,  25°C)  = 33
                          Density (g/cm³)  =   0.99705
                               Volume (L)  =   1.00297
                        Viscosity (mPa s)  =   0.89009
                        Activity of water  =   1.000
                 Ionic strength (mol/kgw)  =   1.600e-04
                       Mass of water (kg)  =   1.000e+00
                 Total alkalinity (eq/kg)  =  -4.734e-05
                         Temperature (°C)  =  25.00
                  Electrical balance (eq)  =   1.791e-11
 Percent error, 100*(Cat-|An|)/(Cat+|An|)  =   0.00
                               Iterations  =   2
                                  Total H  = 1.110125e+02
                                  Total O  = 5.550644e+01

----------------------------Distribution of species----------------------------

                                               Log       Log       Log    mole V
   Species          Molality    Activity  Molality  Activity     Gamma   cm³/mol

   H+              4.734e-05   4.667e-05    -4.325    -4.331    -0.006      0.00
   OH-             2.201e-10   2.169e-10    -9.657    -9.664    -0.006     -4.13
   H2O             5.551e+01   1.000e+00     1.744    -0.000     0.000     18.07
Cl            8.625e-05
   Cl-             8.625e-05   8.500e-05    -4.064    -4.071    -0.006     18.06
   HCl             1.366e-09   1.366e-09    -8.864    -8.864     0.000     (0)  
H(0)          0.000e+00
   H2              0.000e+00   0.000e+00   -42.661   -42.661     0.000     28.61
N(-3)         0.000e+00
   NH4+            0.000e+00   0.000e+00   -51.762   -51.769    -0.006     17.87
   NH3             0.000e+00   0.000e+00   -56.682   -56.682     0.000     24.42
N(0)          7.682e-08
   N2              3.841e-08   3.841e-08    -7.416    -7.416     0.000     29.29
N(3)          8.444e-16
   NO2-            8.444e-16   8.321e-16   -15.073   -15.080    -0.006     24.95
N(5)          7.376e-05
   NO3-            7.376e-05   7.269e-05    -4.132    -4.139    -0.006     29.47
Na            1.127e-04
   Na+             1.127e-04   1.110e-04    -3.948    -3.955    -0.006     -1.50
O(0)          1.824e-07
   O2              9.121e-08   9.121e-08    -7.040    -7.040     0.000     30.40

------------------------------Saturation indices-------------------------------

  Phase               SI** log IAP   log K(298 K,   1 atm)

  H2(g)           -39.56    -42.66   -3.10  H2
  H2O(g)           -1.50     -0.00    1.50  H2O
  Halite           -9.60     -8.03    1.57  NaCl
  N2(g)            -4.24     -7.42   -3.18  N2
  NH3(g)          -58.48    -56.68    1.80  NH3
  O2(g)            -4.15     -7.04   -2.89  O2

**For a gas, SI = log10(fugacity). Fugacity = pressure * phi / 1 atm.
  For ideal gases, phi = 1.

Using mix 4.	

Mixture 4.	

	  0.000e+00 Solution 3	Solution after simulation 1.                           
	  1.000e+00 Solution 4	Solution after simulation 1.                           
	  0.000e+00 Solution 5	Solution after simulation 1.                           

-----------------------------Solution composition------------------------------

	Elements           Molality       Moles

	Cl                8.917e-05   8.917e-05
	N                 8.526e-05   8.526e-05
	Na                1.090e-04   1.090e-04

----------------------------Description of solution----------------------------

                                       pH  =   4.191      Charge balance
                                       pe  =  15.594      Adjusted to redox equilibrium
      Specific Conductance (µS/cm,  25°C)  = 40
                          Density (g/cm³)  =   0.99705
                               Volume (L)  =   1.00297
                        Viscosity (mPa s)  =   0.89009
                        Activity of water  =   1.000
                 Ionic strength (mol/kgw)  =   1.743e-04
                       Mass of water (kg)  =   1.000e+00
                 Total alkalinity (eq/kg)  =  -6.533e-05
                         Temperature (°C)  =  25.00
                  Electrical balance (eq)  =   5.750e-12
 Percent error, 100*(Cat-|An|)/(Cat+|An|)  =   0.00
                               Iterations  =   2
                                  Total H  = 1.110125e+02
                                  Total O  = 5.550647e+01

----------------------------Distribution of species----------------------------

                                               Log       Log       Log    mole V
   Species          Molality    Activity  Molality  Activity     Gamma   cm³/mol

   H+              6.533e-05   6.436e-05    -4.185    -4.191    -0.006      0.00
   OH-             1.597e-10   1.573e-10    -9.797    -9.803    -0.007     -4.13
   H2O             5.551e+01   1.000e+00     1.744    -0.000     0.000     18.07
Cl            8.917e-05
   Cl-             8.917e-05   8.782e-05    -4.050    -4.056    -0.007     18.06
   HCl             1.947e-09   1.947e-09    -8.711    -8.711     0.000     (0)  
H(0)          0.000e+00
   H2              0.000e+00   0.000e+00   -42.720   -42.720     0.000     28.61
N(-3)         0.000e+00
   NH4+            0.000e+00   0.000e+00   -51.655   -51.662    -0.007     17.87
   NH3             0.000e+00   0.000e+00   -56.715   -56.715     0.000     24.42
N(0)          9.905e-08
   N2              4.953e-08   4.953e-08    -7.305    -7.305     0.000     29.29
N(3)          8.517e-16
   NO2-            8.517e-16   8.388e-16   -15.070   -15.076    -0.007     24.95
N(5)          8.516e-05
   NO3-            8.516e-05   8.386e-05    -4.070    -4.076    -0.007     29.47
Na            1.090e-04
   Na+             1.090e-04   1.074e-04    -3.963    -3.969    -0.007     -1.50
O(0)          2.389e-07
   O2              1.195e-07   1.195e-07    -6.923    -6.923     0.000     30.40

------------------------------Saturation indices-------------------------------

  Phase               SI** log IAP   log K(298 K,   1 atm)

  H2(g)           -39.62    -42.72   -3.10  H2
  H2O(g)           -1.50     -0.00    1.50  H2O
  Halite           -9.60     -8.03    1.57  NaCl
  N2(g)            -4.13     -7.31   -3.18  N2
  NH3(g)          -58.51    -56.71    1.80  NH3
  O2(g)            -4.03     -6.92   -2.89  O2

**For a gas, SI = log10(fugacity). Fugacity = pressure * phi / 1 atm.
  For ideal gases, phi = 1.

Using mix 5.	

Mixture 5.	

	  0.000e+00 Solution 4	Solution after simulation 1.                           
	  1.000e+00 Solution 5	Solution after simulation 1.                           
	  0.000e+00 Solution 6	Solution after simulation 1.                           

-----------------------------Solution composition------------------------------

	Elements           Molality       Moles

	Cl                9.282e-05   9.282e-05
	N                 9.194e-05   9.194e-05
	Na                1.052e-04   1.052e-04

----------------------------Description of solution----------------------------

                                       pH  =   4.107      Charge balance
                                       pe  =  15.695      Adjusted to redox equilibrium
      Specific Conductance (µS/cm,  25°C)  = 46
                          Density (g/cm³)  =   0.99705
                               Volume (L)  =   1.00297
                        Viscosity (mPa s)  =   0.89009
                        Activity of water  =   1.000
                 Ionic strength (mol/kgw)  =   1.846e-04
                       Mass of water (kg)  =   1.000e+00
                 Total alkalinity (eq/kg)  =  -7.942e-05
                         Temperature (°C)  =  25.00
                  Electrical balance (eq)  =   1.473e-12
 Percent error, 100*(Cat-|An|)/(Cat+|An|)  =   0.00
                               Iterations  =   2
                                  Total H  = 1.110125e+02
                                  Total O  = 5.550649e+01

----------------------------Distribution of species----------------------------

                                               Log       Log       Log    mole V
   Species          Molality    Activity  Molality  Activity     Gamma   cm³/mol

   H+              7.942e-05   7.821e-05    -4.100    -4.107    -0.007      0.00
   OH-             1.315e-10   1.294e-10    -9.881    -9.888    -0.007     -4.13
   H2O             5.551e+01   1.000e+00     1.744    -0.000     0.000     18.07
Cl            9.282e-05
   Cl-             9.282e-05   9.137e-05    -4.032    -4.039    -0.007     18.06
   HCl             2.461e-09   2.462e-09    -8.609    -8.609     0.000     (0)  
H(0)          0.000e+00
   H2              0.000e+00   0.000e+00   -42.754   -42.754     0.000     28.61
N(-3)         0.000e+00
   NH4+            0.000e+00   0.000e+00   -51.590   -51.597    -0.007     17.87
   NH3             0.000e+00   0.000e+00   -56.735   -56.735     0.000     24.42
N(0)          1.144e-07
   N2              5.722e-08   5.722e-08    -7.242    -7.242     0.000     29.29
N(3)          8.486e-16
   NO2-            8.486e-16   8.354e-16   -15.071   -15.078    -0.007     24.95
N(5)          9.182e-05
   NO3-            9.182e-05   9.039e-05    -4.037    -4.044    -0.007     29.47
Na            1.052e-04
   Na+             1.052e-04   1.036e-04    -3.978    -3.985    -0.007     -1.50
O(0)          2.799e-07
   O2              1.399e-07   1.399e-07    -6.854    -6.854     0.000     30.40

------------------------------Saturation indices-------------------------------

  Phase               SI** log IAP   log K(298 K,   1 atm)

  H2(g)           -39.65    -42.75   -3.10  H2
  H2O(g)           -1.50     -0.00    1.50  H2O
  Halite           -9.59     -8.02    1.57  NaCl
  N2(g)            -4.07     -7.24   -3.18  N2
  NH3(g)          -58.53    -56.73    1.80  NH3
  O2(g)            -3.96     -6.85   -2.89  O2

**For a gas, SI = log10(fugacity). Fugacity = pressure * phi / 1 atm.
  For ideal gases, phi = 1.

Using mix 6.	

Mixture 6.	

	  0.000e+00 Solution 5	Solution after simulation 1.                           
	  1.000e+00 Solution 6	Solution after simulation 1.                           
	  0.000e+00 Solution 7	Solution after simulation 1.                           

-----------------------------Solution composition------------------------------

	Elements           Molality       Moles

	Cl                9.587e-05   9.587e-05
	N                 9.584e-05   9.584e-05
	Na                1.027e-04   1.027e-04

----------------------------Description of solution----------------------------

                                       pH  =   4.058      Charge balance
                                       pe  =  15.754      Adjusted to redox equilibrium
      Specific Conductance (µS/cm,  25°C)  = 49
                          Density (g/cm³)  =   0.99705
                               Volume (L)  =   1.00297
                        Viscosity (mPa s)  =   0.89009
                        Activity of water  =   1.000
                 Ionic strength (mol/kgw)  =   1.916e-04
                       Mass of water (kg)  =   1.000e+00
                 Total alkalinity (eq/kg)  =  -8.894e-05
                         Temperature (°C)  =  25.00
                  Electrical balance (eq)  =   1.637e-12
 Percent error, 100*(Cat-|An|)/(Cat+|An|)  =   0.00
                               Iterations  =   2
                                  Total H  = 1.110125e+02
                                  Total O  = 5.550650e+01

----------------------------Distribution of species----------------------------

                                               Log       Log       Log    mole V
   Species          Molality    Activity  Molality  Activity     Gamma   cm³/mol

   H+              8.894e-05   8.756e-05    -4.051    -4.058    -0.007      0.00
   OH-             1.175e-10   1.156e-10    -9.930    -9.937    -0.007     -4.13
   H2O             5.551e+01   1.000e+00     1.744    -0.000     0.000     18.07
Cl            9.587e-05
   Cl-             9.587e-05   9.435e-05    -4.018    -4.025    -0.007     18.06
   HCl             2.845e-09   2.846e-09    -8.546    -8.546     0.000     (0)  
H(0)          0.000e+00
   H2              0.000e+00   0.000e+00   -42.774   -42.774     0.000     28.61
N(-3)         0.000e+00
   NH4+            0.000e+00   0.000e+00   -51.553   -51.560    -0.007     17.87
   NH3             0.000e+00   0.000e+00   -56.747   -56.747     0.000     24.42
N(0)          1.241e-07
   N2              6.205e-08   6.206e-08    -7.207    -7.207     0.000     29.29
N(3)          8.453e-16
   NO2-            8.453e-16   8.319e-16   -15.073   -15.080    -0.007     24.95
N(5)          9.572e-05
   NO3-            9.572e-05   9.420e-05    -4.019    -4.026    -0.007     29.47
Na            1.027e-04
   Na+             1.027e-04   1.010e-04    -3.989    -3.996    -0.007     -1.50
O(0)          3.065e-07
   O2              1.532e-07   1.532e-07    -6.815    -6.815     0.000     30.40

------------------------------Saturation indices-------------------------------

  Phase               SI** log IAP   log K(298 K,   1 atm)

  H2(g)           -39.67    -42.77   -3.10  H2
  H2O(g)           -1.50     -0.00    1.50  H2O
  Halite           -9.59     -8.02    1.57  NaCl
  N2(g)            -4.03     -7.21   -3.18  N2
  NH3(g)          -58.54    -56.75    1.80  NH3
  O2(g)            -3.92     -6.81   -2.89  O2

**For a gas, SI = log10(fugacity). Fugacity = pressure * phi / 1 atm.
  For ideal gases, phi = 1.

Using mix 7.	

Mixture 7.	

	  0.000e+00 Solution 6	Solution after simulation 1.                           
	  1.000e+00 Solution 7	Solution after simulation 1.                           
	  0.000e+00 Solution 8	Solution after simulation 1.                           

-----------------------------Solution composition------------------------------

	Elements           Molality       Moles

	Cl                9.791e-05   9.791e-05
	N                 9.801e-05   9.801e-05
	Na                1.012e-04   1.012e-04

----------------------------Description of solution----------------------------

                                       pH  =   4.031      Charge balance
                                       pe  =  15.786      Adjusted to redox equilibrium
      Specific Conductance (µS/cm,  25°C)  = 51
                          Density (g/cm³)  =   0.99705
                               Volume (L)  =   1.00297
                        Viscosity (mPa s)  =   0.89009
                        Activity of water  =   1.000
                 Ionic strength (mol/kgw)  =   1.958e-04
                       Mass of water (kg)  =   1.000e+00
                 Total alkalinity (eq/kg)  =  -9.456e-05
                         Temperature (°C)  =  25.00
                  Electrical balance (eq)  =   2.234e-12
 Percent error, 100*(Cat-|An|)/(Cat+|An|)  =   0.00
                               Iterations  =   2
                                  Total H  = 1.110125e+02
                                  Total O  = 5.550651e+01

----------------------------Distribution of species----------------------------

                                               Log       Log       Log    mole V
   Species          Molality    Activity  Molality  Activity     Gamma   cm³/mol

   H+              9.456e-05   9.308e-05    -4.024    -4.031    -0.007      0.00
   OH-             1.105e-10   1.087e-10    -9.957    -9.964    -0.007     -4.12
   H2O             5.551e+01   1.000e+00     1.744    -0.000     0.000     18.07
Cl            9.791e-05
   Cl-             9.790e-05   9.633e-05    -4.009    -4.016    -0.007     18.06
   HCl             3.088e-09   3.089e-09    -8.510    -8.510     0.000     (0)  
H(0)          0.000e+00
   H2              0.000e+00   0.000e+00   -42.785   -42.785     0.000     28.61
N(-3)         0.000e+00
   NH4+            0.000e+00   0.000e+00   -51.533   -51.540    -0.007     17.87
   NH3             0.000e+00   0.000e+00   -56.753   -56.753     0.000     24.42
N(0)          1.296e-07
   N2              6.480e-08   6.480e-08    -7.188    -7.188     0.000     29.29
N(3)          8.434e-16
   NO2-            8.434e-16   8.298e-16   -15.074   -15.081    -0.007     24.95
N(5)          9.788e-05
   NO3-            9.788e-05   9.631e-05    -4.009    -4.016    -0.007     29.47
Na            1.012e-04
   Na+             1.012e-04   9.961e-05    -3.995    -4.002    -0.007     -1.50
O(0)          3.220e-07
   O2              1.610e-07   1.610e-07    -6.793    -6.793     0.000     30.40

------------------------------Saturation indices-------------------------------

  Phase               SI** log IAP   log K(298 K,   1 atm)

  H2(g)           -39.68    -42.78   -3.10  H2
  H2O(g)           -1.50     -0.00    1.50  H2O
  Halite           -9.59     -8.02    1.57  NaCl
  N2(g)            -4.01     -7.19   -3.18  N2
  NH3(g)          -58.55    -56.75    1.80  NH3
  O2(g)            -3.90     -6.79   -2.89  O2

**For a gas, SI = log10(fugacity). Fugacity = pressure * phi / 1 atm.
  For ideal gases, phi = 1.

Using mix 8.	

Mixture 8.	

	  0.000e+00 Solution 7	Solution after simulation 1.                           
	  1.000e+00 Solution 8	Solution after simulation 1.                           
	  0.000e+00 Solution 9	Solution after simulation 1.                           

-----------------------------Solution composition------------------------------

	Elements           Molality       Moles

	Cl                9.904e-05   9.904e-05
	N                 9.912e-05   9.912e-05
	Na                1.005e-04   1.005e-04

----------------------------Description of solution----------------------------

                                       pH  =   4.018      Charge balance
                                       pe  =  15.802      Adjusted to redox equilibrium
      Specific Conductance (µS/cm,  25°C)  = 53
                          Density (g/cm³)  =   0.99705
                               Volume (L)  =   1.00297
                        Viscosity (mPa s)  =   0.89009
                        Activity of water  =   1.000
                 Ionic strength (mol/kgw)  =   1.980e-04
                       Mass of water (kg)  =   1.000e+00
                 Total alkalinity (eq/kg)  =  -9.751e-05
                         Temperature (°C)  =  25.00
                  Electrical balance (eq)  =   4.370e-12
 Percent error, 100*(Cat-|An|)/(Cat+|An|)  =   0.00
                               Iterations  =   2
                                  Total H  = 1.110125e+02
                                  Total O  = 5.550651e+01

----------------------------Distribution of species----------------------------

                                               Log       Log       Log    mole V
   Species          Molality    Activity  Molality  Activity     Gamma   cm³/mol

   H+              9.751e-05   9.597e-05    -4.011    -4.018    -0.007      0.00
   OH-             1.072e-10   1.055e-10    -9.970    -9.977    -0.007     -4.12
   H2O             5.551e+01   1.000e+00     1.744    -0.000     0.000     18.07
Cl            9.904e-05
   Cl-             9.904e-05   9.745e-05    -4.004    -4.011    -0.007     18.06
   HCl             3.221e-09   3.222e-09    -8.492    -8.492     0.000     (0)  
H(0)          0.000e+00
   H2              0.000e+00   0.000e+00   -42.790   -42.790     0.000     28.61
N(-3)         0.000e+00
   NH4+            0.000e+00   0.000e+00   -51.523   -51.531    -0.007     17.87
   NH3             0.000e+00   0.000e+00   -56.757   -56.757     0.000     24.42
N(0)          1.324e-07
   N2              6.620e-08   6.620e-08    -7.179    -7.179     0.000     29.29
N(3)          8.424e-16
   NO2-            8.424e-16   8.288e-16   -15.074   -15.082    -0.007     24.95
N(5)          9.899e-05
   NO3-            9.899e-05   9.739e-05    -4.004    -4.011    -0.007     29.47
Na            1.005e-04
   Na+             1.005e-04   9.891e-05    -3.998    -4.005    -0.007     -1.50
O(0)          3.301e-07
   O2              1.650e-07   1.650e-07    -6.782    -6.782     0.000     30.40

------------------------------Saturation indices-------------------------------

  Phase               SI** log IAP   log K(298 K,   1 atm)

  H2(g)           -39.69    -42.79   -3.10  H2
  H2O(g)           -1.50     -0.00    1.50  H2O
  Halite           -9.59     -8.02    1.57  NaCl
  N2(g)            -4.00     -7.18   -3.18  N2
  NH3(g)          -58.55    -56.76    1.80  NH3
  O2(g)            -3.89     -6.78   -2.89  O2

**For a gas, SI = log10(fugacity). Fugacity = pressure * phi / 1 atm.
  For ideal gases, phi = 1.

Using mix 9.	

Mixture 9.	

	  0.000e+00 Solution 8	Solution after simulation 1.                           
	  1.000e+00 Solution 9	Solution after simulation 1.                           
	  0.000e+00 Solution 10	Solution after simulation 1.                           

-----------------------------Solution composition------------------------------

	Elements           Molality       Moles

	Cl                9.959e-05   9.959e-05
	N                 9.963e-05   9.963e-05
	Na                1.002e-04   1.002e-04

----------------------------Description of solution----------------------------

                                       pH  =   4.012      Charge balance
                                       pe  =  15.809      Adjusted to redox equilibrium
      Specific Conductance (µS/cm,  25°C)  = 53
                          Density (g/cm³)  =   0.99705
                               Volume (L)  =   1.00297
[...]
                                  Total H  = 1.110125e+02
                                  Total O  = 5.550651e+01

----------------------------Distribution of species----------------------------

                                               Log       Log       Log    mole V
   Species          Molality    Activity  Molality  Activity     Gamma   cm³/mol

   H+              9.277e-05   9.132e-05    -4.033    -4.039    -0.007      0.00
   OH-             1.126e-10   1.108e-10    -9.948    -9.955    -0.007     -4.12
   H2O             5.551e+01   1.000e+00     1.744    -0.000     0.000     18.07
Cl            9.724e-05
   Cl-             9.724e-05   9.569e-05    -4.012    -4.019    -0.007     18.06
   HCl             3.010e-09   3.010e-09    -8.521    -8.521     0.000     (0)  
H(0)          0.000e+00
   H2              0.000e+00   0.000e+00   -42.781   -42.781     0.000     28.61
N(-3)         0.000e+00
   NH4+            0.000e+00   0.000e+00   -51.540   -51.547    -0.007     17.87
   NH3             0.000e+00   0.000e+00   -56.751   -56.751     0.000     24.42
N(0)          1.279e-07
   N2              6.393e-08   6.393e-08    -7.194    -7.194     0.000     29.29
N(3)          8.439e-16
   NO2-            8.439e-16   8.304e-16   -15.074   -15.081    -0.007     24.95
N(5)          9.720e-05
   NO3-            9.720e-05   9.564e-05    -4.012    -4.019    -0.007     29.47
Na            1.017e-04
   Na+             1.017e-04   1.001e-04    -3.993    -4.000    -0.007     -1.50
O(0)          3.171e-07
   O2              1.585e-07   1.585e-07    -6.800    -6.800     0.000     30.40

------------------------------Saturation indices-------------------------------

  Phase               SI** log IAP   log K(298 K,   1 atm)

  H2(g)           -39.68    -42.78   -3.10  H2
  H2O(g)           -1.50     -0.00    1.50  H2O
  Halite           -9.59     -8.02    1.57  NaCl
  N2(g)            -4.02     -7.19   -3.18  N2
  NH3(g)          -58.55    -56.75    1.80  NH3
  O2(g)            -3.91     -6.80   -2.89  O2

**For a gas, SI = log10(fugacity). Fugacity = pressure * phi / 1 atm.
  For ideal gases, phi = 1.

Using mix 7.	

Mixture 7.	

	  0.000e+00 Solution 6	Solution after simulation 3.                           
	  1.000e+00 Solution 7	Solution after simulation 3.                           
	  0.000e+00 Solution 8	Solution after simulation 3.                           

-----------------------------Solution composition------------------------------

	Elements           Molality       Moles

	Cl                9.876e-05   9.876e-05
	N                 9.885e-05   9.885e-05
	Na                1.007e-04   1.007e-04

----------------------------Description of solution----------------------------

                                       pH  =   4.021      Charge balance
                                       pe  =  15.798      Adjusted to redox equilibrium
      Specific Conductance (µS/cm,  25°C)  = 52
                          Density (g/cm³)  =   0.99705
                               Volume (L)  =   1.00297
                        Viscosity (mPa s)  =   0.89009
                        Activity of water  =   1.000
                 Ionic strength (mol/kgw)  =   1.975e-04
                       Mass of water (kg)  =   1.000e+00
                 Total alkalinity (eq/kg)  =  -9.680e-05
                         Temperature (°C)  =  25.00
              Electrical Potential (Volt)  = -0.02
                  Electrical balance (eq)  =   2.404e-12
 Percent error, 100*(Cat-|An|)/(Cat+|An|)  =   0.00
                               Iterations  =   2
                                  Total H  = 1.110125e+02
                                  Total O  = 5.550651e+01

----------------------------Distribution of species----------------------------

                                               Log       Log       Log    mole V
   Species          Molality    Activity  Molality  Activity     Gamma   cm³/mol

   H+              9.679e-05   9.527e-05    -4.014    -4.021    -0.007      0.00
   OH-             1.080e-10   1.062e-10    -9.967    -9.974    -0.007     -4.12
   H2O             5.551e+01   1.000e+00     1.744    -0.000     0.000     18.07
Cl            9.876e-05
   Cl-             9.876e-05   9.717e-05    -4.005    -4.012    -0.007     18.06
   HCl             3.188e-09   3.189e-09    -8.496    -8.496     0.000     (0)  
H(0)          0.000e+00
   H2              0.000e+00   0.000e+00   -42.789   -42.789     0.000     28.61
N(-3)         0.000e+00
   NH4+            0.000e+00   0.000e+00   -51.526   -51.533    -0.007     17.87
   NH3             0.000e+00   0.000e+00   -56.756   -56.756     0.000     24.42
N(0)          1.317e-07
   N2              6.586e-08   6.587e-08    -7.181    -7.181     0.000     29.29
N(3)          8.426e-16
   NO2-            8.426e-16   8.290e-16   -15.074   -15.081    -0.007     24.95
N(5)          9.872e-05
   NO3-            9.872e-05   9.713e-05    -4.006    -4.013    -0.007     29.47
Na            1.007e-04
   Na+             1.007e-04   9.908e-05    -3.997    -4.004    -0.007     -1.50
O(0)          3.281e-07
   O2              1.641e-07   1.641e-07    -6.785    -6.785     0.000     30.40

------------------------------Saturation indices-------------------------------

  Phase               SI** log IAP   log K(298 K,   1 atm)

  H2(g)           -39.69    -42.79   -3.10  H2
  H2O(g)           -1.50     -0.00    1.50  H2O
  Halite           -9.59     -8.02    1.57  NaCl
  N2(g)            -4.01     -7.18   -3.18  N2
  NH3(g)          -58.55    -56.76    1.80  NH3
  O2(g)            -3.89     -6.78   -2.89  O2

**For a gas, SI = log10(fugacity). Fugacity = pressure * phi / 1 atm.
  For ideal gases, phi = 1.

Using mix 8.	

Mixture 8.	

	  0.000e+00 Solution 7	Solution after simulation 3.                           
	  1.000e+00 Solution 8	Solution after simulation 3.                           
	  0.000e+00 Solution 9	Solution after simulation 3.                           

-----------------------------Solution composition------------------------------

	Elements           Molality       Moles

	Cl                9.939e-05   9.939e-05
	N                 9.945e-05   9.945e-05
	Na                1.003e-04   1.003e-04

----------------------------Description of solution----------------------------

                                       pH  =   4.014      Charge balance
                                       pe  =  15.807      Adjusted to redox equilibrium
      Specific Conductance (µS/cm,  25°C)  = 53
                          Density (g/cm³)  =   0.99705
                               Volume (L)  =   1.00297
                        Viscosity (mPa s)  =   0.89009
                        Activity of water  =   1.000
                 Ionic strength (mol/kgw)  =   1.987e-04
                       Mass of water (kg)  =   1.000e+00
                 Total alkalinity (eq/kg)  =  -9.838e-05
                         Temperature (°C)  =  25.00
              Electrical Potential (Volt)  = -0.02
                  Electrical balance (eq)  =   4.119e-12
 Percent error, 100*(Cat-|An|)/(Cat+|An|)  =   0.00
                               Iterations  =   2
                                  Total H  = 1.110125e+02
                                  Total O  = 5.550652e+01

----------------------------Distribution of species----------------------------

                                               Log       Log       Log    mole V
   Species          Molality    Activity  Molality  Activity     Gamma   cm³/mol

   H+              9.838e-05   9.683e-05    -4.007    -4.014    -0.007      0.00
   OH-             1.062e-10   1.045e-10    -9.974    -9.981    -0.007     -4.12
   H2O             5.551e+01   1.000e+00     1.744    -0.000     0.000     18.07
Cl            9.939e-05
   Cl-             9.939e-05   9.778e-05    -4.003    -4.010    -0.007     18.06
   HCl             3.261e-09   3.262e-09    -8.487    -8.487     0.000     (0)  
H(0)          0.000e+00
   H2              0.000e+00   0.000e+00   -42.792   -42.792     0.000     28.61
N(-3)         0.000e+00
   NH4+            0.000e+00   0.000e+00   -51.521   -51.528    -0.007     17.87
   NH3             0.000e+00   0.000e+00   -56.758   -56.758     0.000     24.42
N(0)          1.332e-07
   N2              6.661e-08   6.662e-08    -7.176    -7.176     0.000     29.29
N(3)          8.421e-16
   NO2-            8.421e-16   8.285e-16   -15.075   -15.082    -0.007     24.95
N(5)          9.932e-05
   NO3-            9.932e-05   9.771e-05    -4.003    -4.010    -0.007     29.47
Na            1.003e-04
   Na+             1.003e-04   9.871e-05    -3.999    -4.006    -0.007     -1.50
O(0)          3.325e-07
   O2              1.662e-07   1.662e-07    -6.779    -6.779     0.000     30.40

------------------------------Saturation indices-------------------------------

  Phase               SI** log IAP   log K(298 K,   1 atm)

  H2(g)           -39.69    -42.79   -3.10  H2
  H2O(g)           -1.50     -0.00    1.50  H2O
  Halite           -9.59     -8.02    1.57  NaCl
  N2(g)            -4.00     -7.18   -3.18  N2
  NH3(g)          -58.55    -56.76    1.80  NH3
  O2(g)            -3.89     -6.78   -2.89  O2

**For a gas, SI = log10(fugacity). Fugacity = pressure * phi / 1 atm.
  For ideal gases, phi = 1.

Using mix 9.	

Mixture 9.	

	  0.000e+00 Solution 8	Solution after simulation 3.                           
	  1.000e+00 Solution 9	Solution after simulation 3.                           
	  0.000e+00 Solution 10	Solution after simulation 3.                           

-----------------------------Solution composition------------------------------

	Elements           Molality       Moles

	Cl                1.000e-04   1.000e-04
	N                 1.000e-04   1.000e-04
	Na                1.000e-04   1.000e-04

----------------------------Description of solution----------------------------

                                       pH  =   4.008      Charge balance
                                       pe  =  15.815      Adjusted to redox equilibrium
      Specific Conductance (µS/cm,  25°C)  = 54
                          Density (g/cm³)  =   0.99705
                               Volume (L)  =   1.00297
                        Viscosity (mPa s)  =   0.89009
                        Activity of water  =   1.000
                 Ionic strength (mol/kgw)  =   1.999e-04
                       Mass of water (kg)  =   1.000e+00
                 Total alkalinity (eq/kg)  =  -9.987e-05
                         Temperature (°C)  =  25.00
              Electrical Potential (Volt)  = -0.01
                  Electrical balance (eq)  =  -5.314e-16
 Percent error, 100*(Cat-|An|)/(Cat+|An|)  =  -0.00
                               Iterations  =   0
                                  Total H  = 1.110125e+02
                                  Total O  = 5.550652e+01

----------------------------Distribution of species----------------------------

                                               Log       Log       Log    mole V
   Species          Molality    Activity  Molality  Activity     Gamma   cm³/mol

   H+              9.986e-05   9.828e-05    -4.001    -4.008    -0.007      0.00
   OH-             1.047e-10   1.030e-10    -9.980    -9.987    -0.007     -4.12
   H2O             5.551e+01   1.000e+00     1.744    -0.000     0.000     18.07
Cl            1.000e-04
   Cl-             1.000e-04   9.838e-05    -4.000    -4.007    -0.007     18.06
   HCl             3.330e-09   3.331e-09    -8.478    -8.477     0.000     (0)  
H(0)          0.000e+00
   H2              0.000e+00   0.000e+00   -42.794   -42.794     0.000     28.61
N(-3)         0.000e+00
   NH4+            0.000e+00   0.000e+00   -51.516   -51.523    -0.007     17.87
   NH3             0.000e+00   0.000e+00   -56.760   -56.760     0.000     24.42
N(0)          1.346e-07
   N2              6.731e-08   6.731e-08    -7.172    -7.172     0.000     29.29
N(3)          8.416e-16
   NO2-            8.416e-16   8.280e-16   -15.075   -15.082    -0.007     24.95
N(5)          9.987e-05
   NO3-            9.987e-05   9.824e-05    -4.001    -4.008    -0.007     29.47
Na            1.000e-04
   Na+             1.000e-04   9.839e-05    -4.000    -4.007    -0.007     -1.50
O(0)          3.365e-07
   O2              1.683e-07   1.683e-07    -6.774    -6.774     0.000     30.40

------------------------------Saturation indices-------------------------------

  Phase               SI** log IAP   log K(298 K,   1 atm)

  H2(g)           -39.69    -42.79   -3.10  H2
  H2O(g)           -1.50     -0.00    1.50  H2O
  Halite           -9.58     -8.01    1.57  NaCl
  N2(g)            -4.00     -7.17   -3.18  N2
  NH3(g)          -58.56    -56.76    1.80  NH3
  O2(g)            -3.88     -6.77   -2.89  O2

**For a gas, SI = log10(fugacity). Fugacity = pressure * phi / 1 atm.
  For ideal gases, phi = 1.

Using mix 10.	

Mixture 10.	

	  0.000e+00 Solution 9	Solution after simulation 3.                           
	  1.000e+00 Solution 10	Solution after simulation 3.                           
	  0.000e+00 Solution 11	Solution after simulation 3.                           

-----------------------------Solution composition------------------------------

	Elements           Molality       Moles

	Cl                1.000e-04   1.000e-04
	N                 1.000e-04   1.000e-04
	Na                1.000e-04   1.000e-04

----------------------------Description of solution----------------------------

                                       pH  =   4.008      Charge balance
                                       pe  =  15.814      Adjusted to redox equilibrium
      Specific Conductance (µS/cm,  25°C)  = 54
                          Density (g/cm³)  =   0.99705
                               Volume (L)  =   1.00297
                        Viscosity (mPa s)  =   0.89009
                        Activity of water  =   1.000
                 Ionic strength (mol/kgw)  =   1.999e-04
                       Mass of water (kg)  =   1.000e+00
                 Total alkalinity (eq/kg)  =  -9.986e-05
                         Temperature (°C)  =  25.00
              Electrical Potential (Volt)  = -0.00
                  Electrical balance (eq)  =   7.690e-14
 Percent error, 100*(Cat-|An|)/(Cat+|An|)  =   0.00
                               Iterations  =   1
                                  Total H  = 1.110125e+02
                                  Total O  = 5.550652e+01

----------------------------Distribution of species----------------------------

                                               Log       Log       Log    mole V
   Species          Molality    Activity  Molality  Activity     Gamma   cm³/mol

   H+              9.986e-05   9.828e-05    -4.001    -4.008    -0.007      0.00
   OH-             1.047e-10   1.030e-10    -9.980    -9.987    -0.007     -4.12
   H2O             5.551e+01   1.000e+00     1.744    -0.000     0.000     18.07
Cl            1.000e-04
   Cl-             1.000e-04   9.838e-05    -4.000    -4.007    -0.007     18.06
   HCl             3.330e-09   3.331e-09    -8.478    -8.477     0.000     (0)  
H(0)          0.000e+00
   H2              0.000e+00   0.000e+00   -42.794   -42.794     0.000     28.61
N(-3)         0.000e+00
   NH4+            0.000e+00   0.000e+00   -51.515   -51.522    -0.007     17.87
   NH3             0.000e+00   0.000e+00   -56.759   -56.759     0.000     24.42
N(0)          1.350e-07
   N2              6.751e-08   6.751e-08    -7.171    -7.171     0.000     29.29
N(3)          8.421e-16
   NO2-            8.421e-16   8.284e-16   -15.075   -15.082    -0.007     24.95
N(5)          9.986e-05
   NO3-            9.986e-05   9.824e-05    -4.001    -4.008    -0.007     29.47
Na            1.000e-04
   Na+             1.000e-04   9.839e-05    -4.000    -4.007    -0.007     -1.50
O(0)          3.361e-07
   O2              1.681e-07   1.681e-07    -6.775    -6.774     0.000     30.40

------------------------------Saturation indices-------------------------------

  Phase               SI** log IAP   log K(298 K,   1 atm)

  H2(g)           -39.69    -42.79   -3.10  H2
  H2O(g)           -1.50     -0.00    1.50  H2O
  Halite           -9.58     -8.01    1.57  NaCl
  N2(g)            -3.99     -7.17   -3.18  N2
  NH3(g)          -58.55    -56.76    1.80  NH3
  O2(g)            -3.88     -6.77   -2.89  O2

**For a gas, SI = log10(fugacity). Fugacity = pressure * phi / 1 atm.
  For ideal gases, phi = 1.

Using solution 11.	Solution after simulation 3.

-----------------------------Solution composition------------------------------

	Elements           Molality       Moles

	Cl                1.000e-04   1.000e-04
	N                 1.000e-04   1.000e-04
	Na                1.000e-04   1.000e-04

----------------------------Description of solution----------------------------

                                       pH  =   4.008      Charge balance
                                       pe  =  15.815      Adjusted to redox equilibrium
      Specific Conductance (µS/cm,  25°C)  = 54
                          Density (g/cm³)  =   0.99705
                               Volume (L)  =   1.00297
                        Viscosity (mPa s)  =   0.89009
                        Activity of water  =   1.000
                 Ionic strength (mol/kgw)  =   1.999e-04
                       Mass of water (kg)  =   1.000e+00
                 Total alkalinity (eq/kg)  =  -9.987e-05
                         Temperature (°C)  =  25.00
                  Electrical balance (eq)  =   7.680e-14
 Percent error, 100*(Cat-|An|)/(Cat+|An|)  =   0.00
                               Iterations  =   1
                                  Total H  = 1.110125e+02
                                  Total O  = 5.550652e+01

----------------------------Distribution of species----------------------------

                                               Log       Log       Log    mole V
   Species          Molality    Activity  Molality  Activity     Gamma   cm³/mol

   H+              9.986e-05   9.828e-05    -4.001    -4.008    -0.007      0.00
   OH-             1.047e-10   1.030e-10    -9.980    -9.987    -0.007     -4.12
   H2O             5.551e+01   1.000e+00     1.744    -0.000     0.000     18.07
Cl            1.000e-04
   Cl-             1.000e-04   9.838e-05    -4.000    -4.007    -0.007     18.06
   HCl             3.330e-09   3.331e-09    -8.478    -8.477     0.000     (0)  
H(0)          0.000e+00
   H2              0.000e+00   0.000e+00   -42.795   -42.795     0.000     28.61
N(-3)         0.000e+00
   NH4+            0.000e+00   0.000e+00   -51.517   -51.524    -0.007     17.87
   NH3             0.000e+00   0.000e+00   -56.761   -56.761     0.000     24.42
N(0)          1.342e-07
   N2              6.711e-08   6.711e-08    -7.173    -7.173     0.000     29.29
N(3)          8.411e-16
   NO2-            8.411e-16   8.275e-16   -15.075   -15.082    -0.007     24.95
N(5)          9.987e-05
   NO3-            9.987e-05   9.824e-05    -4.001    -4.008    -0.007     29.47
Na            1.000e-04
   Na+             1.000e-04   9.839e-05    -4.000    -4.007    -0.007     -1.50
O(0)          3.369e-07
   O2              1.685e-07   1.685e-07    -6.773    -6.773     0.000     30.40

------------------------------Saturation indices-------------------------------

  Phase               SI** log IAP   log K(298 K,   1 atm)

  H2(g)           -39.69    -42.79   -3.10  H2
  H2O(g)           -1.50     -0.00    1.50  H2O
  Halite           -9.58     -8.01    1.57  NaCl
  N2(g)            -4.00     -7.17   -3.18  N2
  NH3(g)          -58.56    -56.76    1.80  NH3
  O2(g)            -3.88     -6.77   -2.89  O2

**For a gas, SI = log10(fugacity). Fugacity = pressure * phi / 1 atm.
  For ideal gases, phi = 1.

------------------
End of simulation.
------------------

------------------------------------
Reading input data for simulation 4.
------------------------------------

