   Input file: user_print
  Output file: user_print.out
Database file: ../database/phreeqc.dat

------------------
Reading data base.
------------------

	SOLUTION_MASTER_SPECIES
	SOLUTION_SPECIES
	PHASES
	EXCHANGE_MASTER_SPECIES
	EXCHANGE_SPECIES
	SURFACE_MASTER_SPECIES
	SURFACE_SPECIES
	RATES
	END
------------------------------------
Reading input data for simulation 1.
------------------------------------

	DATABASE ../database/phreeqc.dat
	USER_PRINT
		start
	10 print "pH   ", -la("H+")
	20 print "pe   ", -la("e-")
	30 print "Alk  ", alk
	40 print "mu   ", mu
	50 print "rxn  ", rxn
		end
	solution 1
	END
-------------------------------------------
Beginning of initial solution calculations.
-------------------------------------------

Initial solution 1.	

----------------------------------User print-----------------------------------

pH      6.9999e+00 
pe               4 
Alk     2.2080e-10 
mu      1.0016e-07 
rxn              0 

-----------------------------Solution composition------------------------------

	Elements           Molality       Moles

	Pure water     

----------------------------Description of solution----------------------------

                                       pH  =   7.000    
                                       pe  =   4.000    
       Specific Conductance (uS/cm, 25 oC) = 0
                          Density (g/cm3)  =   0.99704
                        Activity of water  =   1.000
                           Ionic strength  =   1.002e-07
                       Mass of water (kg)  =   1.000e+00
                 Total alkalinity (eq/kg)  =   2.208e-10
                    Total carbon (mol/kg)  =   0.000e+00
                       Total CO2 (mol/kg)  =   0.000e+00
                      Temperature (deg C)  =  25.00
                  Electrical balance (eq)  =  -2.208e-10
 Percent error, 100*(Cat-|An|)/(Cat+|An|)  =  -0.11
                               Iterations  =   0
                                  Total H  = 1.110124e+02
                                  Total O  = 5.550622e+01

----------------------------Distribution of species----------------------------

                                               Log       Log       Log    mole V
   Species          Molality    Activity  Molality  Activity     Gamma   cm3/mol

   OH-             1.003e-07   1.002e-07    -6.999    -6.999    -0.000     -4.11
   H+              1.001e-07   1.000e-07    -7.000    -7.000    -0.000      0.00
   H2O             5.551e+01   1.000e+00     1.744     0.000     0.000     18.07
H(0)          1.416e-25
   H2              7.079e-26   7.079e-26   -25.150   -25.150     0.000     28.61
O(0)          0.000e+00
   O2              0.000e+00   0.000e+00   -42.080   -42.080     0.000     30.40

------------------------------Saturation indices-------------------------------

	Phase               SI   log IAP   log K(298 K,   1 atm)

	H2(g)           -22.05    -25.15   -3.10  H2
	H2O(g)           -1.50      0.00    1.50  H2O
	O2(g)           -39.19    -42.08   -2.89  O2


------------------
End of simulation.
------------------

------------------------------------
Reading input data for simulation 2.
------------------------------------

	INCREMENTAL_REACTIONS 
	use solution 1
	reaction
		NaCl
		0.25 0.5 0.75 1.0 
	END
-----------------------------------------
Beginning of batch-reaction calculations.
-----------------------------------------

Reaction step 1.

Using solution 1.	
Using reaction 1.	

Reaction 1.	

	  2.500e-01 moles of the following reaction have been added:

	                 Relative
	Reactant            moles

	NaCl                 1.00000

	                 Relative
	Element             moles
	Cl                   1.00000
	Na                   1.00000

----------------------------------User print-----------------------------------

pH      6.9722e+00 
pe     -1.2472e+00 
Alk     2.2080e-10 
mu      2.5000e-01 
rxn     2.5000e-01 

-----------------------------Solution composition------------------------------

	Elements           Molality       Moles

	Cl                2.500e-01   2.500e-01
	Na                2.500e-01   2.500e-01

----------------------------Description of solution----------------------------

                                       pH  =   6.972      Charge balance
                                       pe  =  -1.247      Adjusted to redox equilibrium
       Specific Conductance (uS/cm, 25 oC) = 25680
                          Density (g/cm3)  =   1.00718
                        Activity of water  =   0.991
                           Ionic strength  =   2.500e-01
                       Mass of water (kg)  =   1.000e+00
                 Total alkalinity (eq/kg)  =   2.208e-10
                    Total carbon (mol/kg)  =   0.000e+00
                       Total CO2 (mol/kg)  =   0.000e+00
                      Temperature (deg C)  =  25.00
                  Electrical balance (eq)  =  -2.208e-10
 Percent error, 100*(Cat-|An|)/(Cat+|An|)  =  -0.00
                               Iterations  =  10
                                  Total H  = 1.110124e+02
                                  Total O  = 5.550622e+01

----------------------------Distribution of species----------------------------

                                               Log       Log       Log    mole V
   Species          Molality    Activity  Molality  Activity     Gamma   cm3/mol

   OH-             1.353e-07   9.321e-08    -6.869    -7.031    -0.162     -3.23
   H+              1.351e-07   1.066e-07    -6.869    -6.972    -0.103      0.00
   H2O             5.551e+01   9.915e-01     1.744    -0.004     0.000     18.07
Cl            2.500e-01
   Cl-             2.500e-01   1.737e-01    -0.602    -0.760    -0.158     18.50
H(0)          4.743e-15
   H2              2.371e-15   2.512e-15   -14.625   -14.600     0.025     28.61
Na            2.500e-01
   Na+             2.500e-01   1.831e-01    -0.602    -0.737    -0.135     -0.84
   NaOH            1.612e-18   1.707e-18   -17.793   -17.768     0.025     (0)  
O(0)          0.000e+00
   O2              0.000e+00   0.000e+00   -63.212   -63.187     0.025     30.40

------------------------------Saturation indices-------------------------------

	Phase               SI   log IAP   log K(298 K,   1 atm)

	H2(g)           -11.50    -14.60   -3.10  H2
	H2O(g)           -1.51     -0.00    1.50  H2O
	Halite           -3.08     -1.50    1.58  NaCl
	O2(g)           -60.30    -63.19   -2.89  O2


Reaction step 2.

Using solution 1.	
Using reaction 1.	

Reaction 1.	

	  5.000e-01 moles of the following reaction have been added:

	                 Relative
	Reactant            moles

	NaCl                 1.00000

	                 Relative
	Element             moles
	Cl                   1.00000
	Na                   1.00000

----------------------------------User print-----------------------------------

pH      6.9568e+00 
pe      1.0931e+01 
Alk     2.2080e-10 
mu      7.5000e-01 
rxn     5.0000e-01 

-----------------------------Solution composition------------------------------

	Elements           Molality       Moles

	Cl                7.500e-01   7.500e-01
	Na                7.500e-01   7.500e-01

----------------------------Description of solution----------------------------

                                       pH  =   6.957      Charge balance
                                       pe  =  10.931      Adjusted to redox equilibrium
       Specific Conductance (uS/cm, 25 oC) = 65371
                          Density (g/cm3)  =   1.02671
                        Activity of water  =   0.974
                           Ionic strength  =   7.500e-01
                       Mass of water (kg)  =   1.000e+00
                 Total alkalinity (eq/kg)  =   2.208e-10
                    Total carbon (mol/kg)  =   0.000e+00
                       Total CO2 (mol/kg)  =   0.000e+00
                      Temperature (deg C)  =  25.00
                  Electrical balance (eq)  =  -2.208e-10
 Percent error, 100*(Cat-|An|)/(Cat+|An|)  =  -0.00
                               Iterations  =  15
                                  Total H  = 1.110124e+02
                                  Total O  = 5.550622e+01

----------------------------Distribution of species----------------------------

                                               Log       Log       Log    mole V
   Species          Molality    Activity  Molality  Activity     Gamma   cm3/mol

   OH-             1.472e-07   8.842e-08    -6.832    -7.053    -0.221     -2.08
   H+              1.470e-07   1.105e-07    -6.833    -6.957    -0.124      0.00
   H2O             5.551e+01   9.745e-01     1.744    -0.011     0.000     18.07
Cl            7.500e-01
   Cl-             7.500e-01   4.624e-01    -0.125    -0.335    -0.210     18.82
H(0)          1.993e-39
   H2              9.964e-40   1.184e-39   -39.002   -38.927     0.075     28.61
Na            7.500e-01
   Na+             7.500e-01   5.305e-01    -0.125    -0.275    -0.150     -0.54
   NaOH            3.947e-18   4.691e-18   -17.404   -17.329     0.075     (0)  
O(0)          4.751e-15
   O2              2.375e-15   2.823e-15   -14.624   -14.549     0.075     30.40

------------------------------Saturation indices-------------------------------

	Phase               SI   log IAP   log K(298 K,   1 atm)

	H2(g)           -35.83    -38.93   -3.10  H2
	H2O(g)           -1.51     -0.01    1.50  H2O
	Halite           -2.19     -0.61    1.58  NaCl
	O2(g)           -11.66    -14.55   -2.89  O2


Reaction step 3.

Using solution 1.	
Using reaction 1.	

Reaction 1.	

	  7.500e-01 moles of the following reaction have been added:

	                 Relative
	Reactant            moles

	NaCl                 1.00000

	                 Relative
	Element             moles
	Cl                   1.00000
	Na                   1.00000

----------------------------------User print-----------------------------------

pH      6.9491e+00 
pe      1.0964e+01 
Alk     2.2080e-10 
mu      1.5000e+00 
rxn     7.5000e-01 

-----------------------------Solution composition------------------------------

	Elements           Molality       Moles

	Cl                1.500e+00   1.500e+00
	Na                1.500e+00   1.500e+00

----------------------------Description of solution----------------------------

                                       pH  =   6.949      Charge balance
                                       pe  =  10.964      Adjusted to redox equilibrium
       Specific Conductance (uS/cm, 25 oC) = 111021
                          Density (g/cm3)  =   1.05458
                        Activity of water  =   0.949
                           Ionic strength  =   1.500e+00
                       Mass of water (kg)  =   1.000e+00
                 Total alkalinity (eq/kg)  =   2.208e-10
                    Total carbon (mol/kg)  =   0.000e+00
                       Total CO2 (mol/kg)  =   0.000e+00
                      Temperature (deg C)  =  25.00
                  Electrical balance (eq)  =  -2.208e-10
 Percent error, 100*(Cat-|An|)/(Cat+|An|)  =  -0.00
                               Iterations  =   5
                                  Total H  = 1.110124e+02
                                  Total O  = 5.550622e+01

----------------------------Distribution of species----------------------------

                                               Log       Log       Log    mole V
   Species          Molality    Activity  Molality  Activity     Gamma   cm3/mol

   OH-             1.537e-07   8.459e-08    -6.813    -7.073    -0.259     -0.53
   H+              1.535e-07   1.124e-07    -6.814    -6.949    -0.135      0.00
   H2O             5.551e+01   9.490e-01     1.744    -0.023     0.000     18.07
Cl            1.500e+00
   Cl-             1.500e+00   8.694e-01     0.176    -0.061    -0.237     19.12
H(0)          1.496e-39
   H2              7.478e-40   1.056e-39   -39.126   -38.976     0.150     28.61
Na            1.500e+00
   Na+             1.500e+00   1.120e+00     0.176     0.049    -0.127     -0.19
   NaOH            6.707e-18   9.474e-18   -17.173   -17.023     0.150     (0)  
O(0)          4.765e-15
   O2              2.382e-15   3.365e-15   -14.623   -14.473     0.150     30.40

------------------------------Saturation indices-------------------------------

	Phase               SI   log IAP   log K(298 K,   1 atm)

	H2(g)           -35.88    -38.98   -3.10  H2
	H2O(g)           -1.53     -0.02    1.50  H2O
	Halite           -1.59     -0.01    1.58  NaCl
	O2(g)           -11.58    -14.47   -2.89  O2


Reaction step 4.

Using solution 1.	
Using reaction 1.	

Reaction 1.	

	  1.000e+00 moles of the following reaction have been added:

	                 Relative
	Reactant            moles

	NaCl                 1.00000

	                 Relative
	Element             moles
	Cl                   1.00000
	Na                   1.00000

----------------------------------User print-----------------------------------

pH      6.9471e+00 
pe      1.0997e+01 
Alk     2.2080e-10 
mu      2.5000e+00 
rxn              1 

-----------------------------Solution composition------------------------------

	Elements           Molality       Moles

	Cl                2.500e+00   2.500e+00
	Na                2.500e+00   2.500e+00

----------------------------Description of solution----------------------------

                                       pH  =   6.947      Charge balance
                                       pe  =  10.997      Adjusted to redox equilibrium
       Specific Conductance (uS/cm, 25 oC) = 172280
                          Density (g/cm3)  =   1.08936
                        Activity of water  =   0.915
                           Ionic strength  =   2.500e+00
                       Mass of water (kg)  =   1.000e+00
                 Total alkalinity (eq/kg)  =   2.208e-10
                    Total carbon (mol/kg)  =   0.000e+00
                       Total CO2 (mol/kg)  =   0.000e+00
                      Temperature (deg C)  =  25.00
                  Electrical balance (eq)  =  -2.208e-10
 Percent error, 100*(Cat-|An|)/(Cat+|An|)  =  -0.00
                               Iterations  =   5
                                  Total H  = 1.110124e+02
                                  Total O  = 5.550622e+01

----------------------------Distribution of species----------------------------

                                               Log       Log       Log    mole V
   Species          Molality    Activity  Molality  Activity     Gamma   cm3/mol

   OH-             1.569e-07   8.118e-08    -6.804    -7.091    -0.286      1.42
   H+              1.567e-07   1.130e-07    -6.805    -6.947    -0.142      0.00
   H2O             5.551e+01   9.150e-01     1.744    -0.039     0.000     18.07
Cl            2.500e+00
   Cl-             2.500e+00   1.410e+00     0.398     0.149    -0.249     19.42
H(0)          1.031e-39
   H2              5.157e-40   9.171e-40   -39.288   -39.038     0.250     28.61
Na            2.500e+00
   Na+             2.500e+00   2.106e+00     0.398     0.323    -0.075      0.23
   NaOH            9.613e-18   1.709e-17   -17.017   -16.767     0.250     (0)  
O(0)          4.667e-15
   O2              2.334e-15   4.150e-15   -14.632   -14.382     0.250     30.40

------------------------------Saturation indices-------------------------------

	Phase               SI   log IAP   log K(298 K,   1 atm)

	H2(g)           -35.94    -39.04   -3.10  H2
	H2O(g)           -1.54     -0.04    1.50  H2O
	Halite           -1.11      0.47    1.58  NaCl
	O2(g)           -11.49    -14.38   -2.89  O2


------------------
End of simulation.
------------------

------------------------------------
Reading input data for simulation 3.
------------------------------------

	solution 1
	END
-------------------------------------------
Beginning of initial solution calculations.
-------------------------------------------

Initial solution 1.	

----------------------------------User print-----------------------------------

pH      6.9999e+00 
pe               4 
Alk     2.2080e-10 
mu      1.0016e-07 
rxn              0 

-----------------------------Solution composition------------------------------

	Elements           Molality       Moles

	Pure water     

----------------------------Description of solution----------------------------

                                       pH  =   7.000    
                                       pe  =   4.000    
       Specific Conductance (uS/cm, 25 oC) = 0
                          Density (g/cm3)  =   0.99704
                        Activity of water  =   1.000
                           Ionic strength  =   1.002e-07
                       Mass of water (kg)  =   1.000e+00
                 Total alkalinity (eq/kg)  =   2.208e-10
                    Total carbon (mol/kg)  =   0.000e+00
                       Total CO2 (mol/kg)  =   0.000e+00
                      Temperature (deg C)  =  25.00
                  Electrical balance (eq)  =  -2.208e-10
 Percent error, 100*(Cat-|An|)/(Cat+|An|)  =  -0.11
                               Iterations  =   0
                                  Total H  = 1.110124e+02
                                  Total O  = 5.550622e+01

----------------------------Distribution of species----------------------------

                                               Log       Log       Log    mole V
   Species          Molality    Activity  Molality  Activity     Gamma   cm3/mol

   OH-             1.003e-07   1.002e-07    -6.999    -6.999    -0.000     -4.11
   H+              1.001e-07   1.000e-07    -7.000    -7.000    -0.000      0.00
   H2O             5.551e+01   1.000e+00     1.744     0.000     0.000     18.07
H(0)          1.416e-25
   H2              7.079e-26   7.079e-26   -25.150   -25.150     0.000     28.61
O(0)          0.000e+00
   O2              0.000e+00   0.000e+00   -42.080   -42.080     0.000     30.40

------------------------------Saturation indices-------------------------------

	Phase               SI   log IAP   log K(298 K,   1 atm)

	H2(g)           -22.05    -25.15   -3.10  H2
	H2O(g)           -1.50      0.00    1.50  H2O
	O2(g)           -39.19    -42.08   -2.89  O2


------------------
End of simulation.
------------------

------------------------------------
Reading input data for simulation 4.
------------------------------------

------------------------------
End of Run after 0.02 Seconds.
------------------------------

