   Input file: v_TP_Na2SO4
  Output file: v_TP_Na2SO4.out
Database file: ../database/pitzer.dat

------------------
Reading data base.
------------------

	SOLUTION_MASTER_SPECIES
	SOLUTION_SPECIES
	PHASES
	PITZER
	EXCHANGE_MASTER_SPECIES
	EXCHANGE_SPECIES
	SURFACE_MASTER_SPECIES
	SURFACE_SPECIES
	END
------------------------------------
Reading input data for simulation 1.
------------------------------------

	DATABASE ../database/pitzer.dat
	SELECTED_OUTPUT 101
	    file                v_TP_Na2SO4_101.sel
	USER_PUNCH 101
	    headings Mu SC Viscosity
	    start
	10 PUNCH STR_F$(MU, 20, 12)
	20 PUNCH STR_F$(SC, 20, 10)
	30 PUNCH STR_F$(VISCOS, 20, 10)
	    end
	SOLUTION 1
	pH 7 charge
	SAVE solution 1
	PRINT
	 reset false
s.d. for Na2SO4 :       3.4469e+00 % ( 64  samples), 25 - 200 oC, Abdul, dif <  0.50. 0 outliers. 
-------------------------------
End of Run after 1.402 Seconds.
-------------------------------

