WARNING: Database file from DATABASE keyword is used; command line argument ignored.
   Input file: v_TP_K2SO4
  Output file: v_TP_K2SO4.out
Database file: ../database/pitzer.dat

------------------
Reading data base.
------------------

	SOLUTION_MASTER_SPECIES
	SOLUTION_SPECIES
	PHASES
	PITZER
	EXCHANGE_MASTER_SPECIES
	EXCHANGE_SPECIES
	SURFACE_MASTER_SPECIES
	SURFACE_SPECIES
	END
------------------------------------
Reading input data for simulation 1.
------------------------------------

	DATABASE ../database/pitzer.dat
	SELECTED_OUTPUT 101
	    file                v_TP_K2SO4_101.sel
	USER_PUNCH 101
	    headings Mu SC Viscosity
	    start
	10 PUNCH STR_F$(MU, 20, 12)
	20 PUNCH STR_F$(SC, 20, 10)
	30 PUNCH STR_F$(VISCOS, 20, 10)
	    end
	SOLUTION 1
	pH 7 charge
	SAVE solution 1
	END
-------------------------------------------
Beginning of initial solution calculations.
-------------------------------------------

Initial solution 1.	

-----------------------------Solution composition------------------------------

	Elements           Molality       Moles

	Pure water     

----------------------------Description of solution----------------------------

                                       pH  =   6.997      Charge balance
                                       pe  =   4.000    
      Specific Conductance (µS/cm,  25°C)  = 0
                          Density (g/cm³)  =   0.99704
                               Volume (L)  =   1.00297
                        Viscosity (mPa s)  =   0.89002
                        Activity of water  =   1.000
                 Ionic strength (mol/kgw)  =   1.006e-07
                       Mass of water (kg)  =   1.000e+00
                 Total alkalinity (eq/kg)  =   0.000e+00
                         Temperature (°C)  =  25.00
                  Electrical balance (eq)  =   0.000e+00
 Percent error, 100*(Cat-|An|)/(Cat+|An|)  =   0.00
                               Iterations  =   4
                         Gamma iterations  =   2
                      Osmotic coefficient  =   0.99988
                         Density of water  =   0.99704
                                  Total H  = 1.110124e+02
                                  Total O  = 5.550622e+01

----------------------------Distribution of species----------------------------

                                                    MacInnes  MacInnes
                                MacInnes       Log       Log       Log    mole V
   Species          Molality    Activity  Molality  Activity     Gamma   cm³/mol

   H+              1.006e-07   1.006e-07    -6.997    -6.997    -0.000      0.00
   OH-             1.006e-07   1.006e-07    -6.997    -6.997    -0.000     -4.14
   H2O             5.551e+01   1.000e+00     1.744    -0.000     0.000     18.07

------------------------------Saturation indices-------------------------------

  Phase               SI** log IAP   log K(298 K,   1 atm)

  H2O(g)           -1.50     -0.00    1.50  H2O

**For a gas, SI = log10(fugacity). Fugacity = pressure * phi / 1 atm.
  For ideal gases, phi = 1.

------------------
End of simulation.
------------------

------------------------------------
Reading input data for simulation 2.
------------------------------------

	USE solution 1	
	REACTION 1
	 K2SO4 0.0658	
	REACTION_TEMPERATURE 
		 25.00, 40.40, 50.10, 75.30, 103.50, 125.40, 150.70, 174.20, 198.90, 	
	USER_GRAPH 
	  -headings 0.066.M
	  -chart_title "K2SO4, Abdulagatov, 25 - 200 oC, 1 - 291 atm"
	  -axis_titles "temperature / oC" "viscosity / (mPa s) "
	  -connect_simulations false
	  -axis_scale x_axis 0 225
	10 DATA 	 0.9023, 0.6613, 0.5586, 0.3869, 0.2805, 0.2289, 0.1881, 0.1613, 0.1403,
	20 restore 10 : erase v_ : dim v_(500) : for i = 1 to step_no : READ v_(i) : next i	
	30 s = viscos : if i = 1 and step_no = 1 then put(0, 1) : put(0, 2) : put(0, 9)	
	40 dif = 1 - v_(step_no) / s : adif = dif	
	44 dmax = 0.5e0 : if abs(dif) > dmax then dif = 0 : put(1 + get(9), 9)	
	46 a = 1.00e0 : dif = dif * a	     
	50 REM	
	60 plot_xy tc, v_(step_no), line_width = 0, color = Red
	62 plot_xy tc, s, symbol = None 	
	70 if tc < 250 then put(dif^2 + get(1), 1) : put(1 + get(2), 2)	        
	END	
-----------------------------------------
Beginning of batch-reaction calculations.
-----------------------------------------

Reaction step 1.

Using solution 1.	
Using temperature 1.	
Using reaction 1.	

Reaction 1.	

	  1.000e+00 moles of the following reaction have been added:

	                 Relative
	Reactant            moles

	K2SO4                0.06580

	                 Relative
	Element             moles
	K                    0.13160
	O                    0.26320
	S                    0.06580

-----------------------------Solution composition------------------------------

	Elements           Molality       Moles

	K                 1.316e-01   1.316e-01
	S                 6.580e-02   6.580e-02

----------------------------Description of solution----------------------------

                                       pH  =   7.227      Charge balance
                                       pe  =   4.000      Adjusted to redox equilibrium
      Specific Conductance (µS/cm,  25°C)  = 14883
                          Density (g/cm³)  =   1.00609
                               Volume (L)  =   1.00535
                        Viscosity (mPa s)  =   0.89933
                        Activity of water  =   0.997
                 Ionic strength (mol/kgw)  =   1.974e-01
                       Mass of water (kg)  =   1.000e+00
                 Total alkalinity (eq/kg)  =   9.281e-17
                         Temperature (°C)  =  25.00
                  Electrical balance (eq)  =  -2.900e-12
 Percent error, 100*(Cat-|An|)/(Cat+|An|)  =  -0.00
                               Iterations  =   9
                         Gamma iterations  =   3
                      Osmotic coefficient  =   0.80324
                         Density of water  =   0.99704
                                  Total H  = 1.110124e+02
                                  Total O  = 5.576942e+01

----------------------------Distribution of species----------------------------

                                                    MacInnes  MacInnes
                                MacInnes       Log       Log       Log    mole V
   Species          Molality    Activity  Molality  Activity     Gamma   cm³/mol

   OH-             2.298e-07   1.701e-07    -6.639    -6.769    -0.131     -3.50
   H+              9.280e-08   5.932e-08    -7.032    -7.227    -0.194      0.00
   H2O             5.551e+01   9.971e-01     1.744    -0.001     0.000     18.07
K             1.316e-01
   K+              1.316e-01   8.873e-02    -0.881    -1.052    -0.171      9.34
S(6)          6.580e-02
   SO4-2           6.580e-02   1.699e-02    -1.182    -1.770    -0.588     17.48
   HSO4-           1.370e-07   9.604e-08    -6.863    -7.018    -0.154     40.65

------------------------------Saturation indices-------------------------------

  Phase               SI** log IAP   log K(298 K,   1 atm)

  Arcanite         -1.99     -3.87   -1.88  K2SO4
  H2O(g)           -1.50     -0.00    1.50  H2O
  Misenite        -53.36    -64.16  -10.81  K8H6(SO4)7

**For a gas, SI = log10(fugacity). Fugacity = pressure * phi / 1 atm.
  For ideal gases, phi = 1.

Reaction step 2.

Using solution 1.	
Using temperature 1.	
Using reaction 1.	

Reaction 1.	

	  1.000e+00 moles of the following reaction have been added:

	                 Relative
	Reactant            moles

	K2SO4                0.06580

	                 Relative
	Element             moles
	K                    0.13160
	O                    0.26320
	S                    0.06580

-----------------------------Solution composition------------------------------

	Elements           Molality       Moles

	K                 1.316e-01   1.316e-01
	S                 6.580e-02   6.580e-02

----------------------------Description of solution----------------------------

                                       pH  =   7.050      Charge balance
                                       pe  =   4.000      Adjusted to redox equilibrium
      Specific Conductance (µS/cm,  40°C)  = 19399
                          Density (g/cm³)  =   1.00098
                               Volume (L)  =   1.01047
                        Viscosity (mPa s)  =   0.65694
                        Activity of water  =   0.997
                 Ionic strength (mol/kgw)  =   1.974e-01
                       Mass of water (kg)  =   1.000e+00
                 Total alkalinity (eq/kg)  =   2.176e-16
                         Temperature (°C)  =  40.40
                  Electrical balance (eq)  =  -5.030e-12
 Percent error, 100*(Cat-|An|)/(Cat+|An|)  =  -0.00
                               Iterations  =   9
                         Gamma iterations  =   3
                      Osmotic coefficient  =   0.80274
                         Density of water  =   0.99206
                                  Total H  = 1.110124e+02
                                  Total O  = 5.576942e+01

----------------------------Distribution of species----------------------------

                                                    MacInnes  MacInnes
                                MacInnes       Log       Log       Log    mole V
   Species          Molality    Activity  Molality  Activity     Gamma   cm³/mol

   OH-             4.585e-07   3.363e-07    -6.339    -6.473    -0.135     -3.12
   H+              1.417e-07   8.912e-08    -6.849    -7.050    -0.201      0.00
   H2O             5.551e+01   9.971e-01     1.744    -0.001     0.000     18.16
K             1.316e-01
   K+              1.316e-01   8.833e-02    -0.881    -1.054    -0.173      9.76
S(6)          6.580e-02
   SO4-2           6.580e-02   1.671e-02    -1.182    -1.777    -0.595     17.99
   HSO4-           3.168e-07   2.201e-07    -6.499    -6.657    -0.158     41.45

------------------------------Saturation indices-------------------------------

  Phase               SI** log IAP   log K(313 K,   1 atm)

  Arcanite         -2.18     -3.88   -1.71  K2SO4
  H2O(g)           -1.13     -0.00    1.13  H2O
  Misenite        -52.36    -63.17  -10.81  K8H6(SO4)7

**For a gas, SI = log10(fugacity). Fugacity = pressure * phi / 1 atm.
  For ideal gases, phi = 1.

Reaction step 3.

Using solution 1.	
Using temperature 1.	
Using reaction 1.	

Reaction 1.	

	  1.000e+00 moles of the following reaction have been added:

	                 Relative
	Reactant            moles

	K2SO4                0.06580

	                 Relative
	Element             moles
	K                    0.13160
	O                    0.26320
	S                    0.06580

-----------------------------Solution composition------------------------------

	Elements           Molality       Moles

	K                 1.316e-01   1.316e-01
	S                 6.580e-02   6.580e-02

----------------------------Description of solution----------------------------

                                       pH  =   6.961      Charge balance
                                       pe  =   4.000      Adjusted to redox equilibrium
      Specific Conductance (µS/cm,  50°C)  = 22325
                          Density (g/cm³)  =   0.99687
                               Volume (L)  =   1.01464
                        Viscosity (mPa s)  =   0.55428
                        Activity of water  =   0.997
                 Ionic strength (mol/kgw)  =   1.974e-01
                       Mass of water (kg)  =   1.000e+00
                 Total alkalinity (eq/kg)  =   3.598e-16
                         Temperature (°C)  =  50.10
                  Electrical balance (eq)  =  -6.821e-12
 Percent error, 100*(Cat-|An|)/(Cat+|An|)  =  -0.00
                               Iterations  =   9
                         Gamma iterations  =   3
                      Osmotic coefficient  =   0.80118
                         Density of water  =   0.98798
                                  Total H  = 1.110124e+02
                                  Total O  = 5.576942e+01

----------------------------Distribution of species----------------------------

                                                    MacInnes  MacInnes
                                MacInnes       Log       Log       Log    mole V
   Species          Molality    Activity  Molality  Activity     Gamma   cm³/mol

   OH-             6.888e-07   5.018e-07    -6.162    -6.299    -0.138     -3.09
   H+              1.758e-07   1.094e-07    -6.755    -6.961    -0.206      0.00
   H2O             5.551e+01   9.972e-01     1.744    -0.001     0.000     18.24
K             1.316e-01
   K+              1.316e-01   8.790e-02    -0.881    -1.056    -0.175      9.96
S(6)          6.580e-02
   SO4-2           6.580e-02   1.643e-02    -1.182    -1.784    -0.603     17.77
   HSO4-           5.130e-07   3.539e-07    -6.290    -6.451    -0.161     41.73

------------------------------Saturation indices-------------------------------

  Phase               SI** log IAP   log K(323 K,   1 atm)

  Arcanite         -2.27     -3.90   -1.63  K2SO4
  H2O(g)           -0.91     -0.00    0.91  H2O
  Misenite        -51.90    -62.70  -10.81  K8H6(SO4)7

**For a gas, SI = log10(fugacity). Fugacity = pressure * phi / 1 atm.
  For ideal gases, phi = 1.

Reaction step 4.

Using solution 1.	
Using temperature 1.	
Using reaction 1.	

Reaction 1.	

	  1.000e+00 moles of the following reaction have been added:

	                 Relative
	Reactant            moles

	K2SO4                0.06580

	                 Relative
	Element             moles
	K                    0.13160
	O                    0.26320
	S                    0.06580

-----------------------------Solution composition------------------------------

	Elements           Molality       Moles

	K                 1.316e-01   1.316e-01
	S                 6.580e-02   6.580e-02

----------------------------Description of solution----------------------------

                                       pH  =   6.797      Charge balance
                                       pe  =   4.000      Adjusted to redox equilibrium
      Specific Conductance (µS/cm,  75°C)  = 30034
                          Density (g/cm³)  =   0.98353
                               Volume (L)  =   1.02840
                        Viscosity (mPa s)  =   0.38341
                        Activity of water  =   0.997
                 Ionic strength (mol/kgw)  =   1.974e-01
                       Mass of water (kg)  =   1.000e+00
                 Total alkalinity (eq/kg)  =   8.874e-16
                         Temperature (°C)  =  75.30
                  Electrical balance (eq)  =  -1.312e-11
 Percent error, 100*(Cat-|An|)/(Cat+|An|)  =  -0.00
                               Iterations  =   9
                         Gamma iterations  =   3
                      Osmotic coefficient  =   0.79366
                         Density of water  =   0.97466
                                  Total H  = 1.110124e+02
                                  Total O  = 5.576942e+01

----------------------------Distribution of species----------------------------

                                                    MacInnes  MacInnes
                                MacInnes       Log       Log       Log    mole V
   Species          Molality    Activity  Molality  Activity     Gamma   cm³/mol

   OH-             1.824e-06   1.301e-06    -5.739    -5.886    -0.147     -3.60
   H+              2.639e-07   1.595e-07    -6.579    -6.797    -0.219      0.00
   H2O             5.551e+01   9.972e-01     1.744    -0.001     0.000     18.48
K             1.316e-01
   K+              1.316e-01   8.630e-02    -0.881    -1.064    -0.183     10.33
S(6)          6.580e-02
   SO4-2           6.580e-02   1.543e-02    -1.182    -1.812    -0.630     15.83
   HSO4-           1.560e-06   1.054e-06    -5.807    -5.977    -0.170     41.93

------------------------------Saturation indices-------------------------------

  Phase               SI** log IAP   log K(348 K,   1 atm)

  Arcanite         -2.44     -3.94   -1.50  K2SO4
  H2O(g)           -0.42     -0.00    0.42  H2O
  Misenite        -51.17    -61.98  -10.81  K8H6(SO4)7

**For a gas, SI = log10(fugacity). Fugacity = pressure * phi / 1 atm.
  For ideal gases, phi = 1.

Reaction step 5.

Using solution 1.	
Using temperature 1.	
Using reaction 1.	

Reaction 1.	

	  1.000e+00 moles of the following reaction have been added:

	                 Relative
	Reactant            moles

	K2SO4                0.06580

	                 Relative
	Element             moles
	K                    0.13160
	O                    0.26320
	S                    0.06580

-----------------------------Solution composition------------------------------

	Elements           Molality       Moles

	K                 1.316e-01   1.316e-01
	S                 6.580e-02   6.580e-02

----------------------------Description of solution----------------------------

                                       pH  =   6.708      Charge balance
                                       pe  =   4.000      Adjusted to redox equilibrium
      Specific Conductance (µS/cm, 104°C)  = 38457
                          Density (g/cm³)  =   0.96476
                               Volume (L)  =   1.04841
                        Viscosity (mPa s)  =   0.27791
                        Activity of water  =   0.997
                 Ionic strength (mol/kgw)  =   1.974e-01
                       Mass of water (kg)  =   1.000e+00
                 Total alkalinity (eq/kg)  =   2.276e-15
                         Temperature (°C)  = 103.50
                           Pressure (atm)  =  1.13
                  Electrical balance (eq)  =  -2.367e-11
 Percent error, 100*(Cat-|An|)/(Cat+|An|)  =  -0.00
                               Iterations  =   9
                         Gamma iterations  =   3
                      Osmotic coefficient  =   0.78075
                         Density of water  =   0.95581
                                  Total H  = 1.110124e+02
                                  Total O  = 5.576942e+01

----------------------------Distribution of species----------------------------

                                                    MacInnes  MacInnes
                                MacInnes       Log       Log       Log    mole V
   Species          Molality    Activity  Molality  Activity     Gamma   cm³/mol

   OH-             4.812e-06   3.333e-06    -5.318    -5.477    -0.159     -5.09
   H+              3.367e-07   1.959e-07    -6.473    -6.708    -0.235      0.00
   H2O             5.551e+01   9.972e-01     1.744    -0.001     0.000     18.85
K             1.316e-01
   K+              1.316e-01   8.389e-02    -0.881    -1.076    -0.196     10.63
S(6)          6.580e-02
   SO4-2           6.580e-02   1.401e-02    -1.182    -1.854    -0.672     11.83
   HSO4-           4.475e-06   2.935e-06    -5.349    -5.532    -0.183     41.42

------------------------------Saturation indices-------------------------------

  Phase               SI** log IAP   log K(376 K,   1 atm)

  Arcanite         -2.54     -4.01   -1.46  K2SO4
  H2O(g)            0.05     -0.00   -0.05  H2O
  Misenite        -51.03    -61.83  -10.81  K8H6(SO4)7

**For a gas, SI = log10(fugacity). Fugacity = pressure * phi / 1 atm.
  For ideal gases, phi = 1.

Reaction step 6.

Using solution 1.	
Using temperature 1.	
Using reaction 1.	

Reaction 1.	

	  1.000e+00 moles of the following reaction have been added:

	                 Relative
	Reactant            moles

	K2SO4                0.06580

	                 Relative
	Element             moles
	K                    0.13160
	O                    0.26320
	S                    0.06580

-----------------------------Solution composition------------------------------

	Elements           Molality       Moles

	K                 1.316e-01   1.316e-01
	S                 6.580e-02   6.580e-02

----------------------------Description of solution----------------------------

                                       pH  =   6.691      Charge balance
                                       pe  =   4.000      Adjusted to redox equilibrium
      Specific Conductance (µS/cm, 125°C)  = 44564
                          Density (g/cm³)  =   0.94775
                               Volume (L)  =   1.06722
                        Viscosity (mPa s)  =   0.22703
                        Activity of water  =   0.997
                 Ionic strength (mol/kgw)  =   1.974e-01
                       Mass of water (kg)  =   1.000e+00
                 Total alkalinity (eq/kg)  =   4.757e-15
                         Temperature (°C)  = 125.40
                           Pressure (atm)  =  2.32
                  Electrical balance (eq)  =  -3.656e-11
 Percent error, 100*(Cat-|An|)/(Cat+|An|)  =  -0.00
                               Iterations  =   9
                         Gamma iterations  =   3
                      Osmotic coefficient  =   0.76826
                         Density of water  =   0.93869
                                  Total H  = 1.110124e+02
                                  Total O  = 5.576942e+01

----------------------------Distribution of species----------------------------

                                                    MacInnes  MacInnes
                                MacInnes       Log       Log       Log    mole V
   Species          Molality    Activity  Molality  Activity     Gamma   cm³/mol

   OH-             9.470e-06   6.383e-06    -5.024    -5.195    -0.171     -7.01
   H+              3.618e-07   2.036e-07    -6.441    -6.691    -0.250      0.00
   H2O             5.551e+01   9.973e-01     1.744    -0.001     0.000     19.19
K             1.316e-01
   K+              1.316e-01   8.170e-02    -0.881    -1.088    -0.207     10.83
S(6)          6.580e-02
   SO4-2           6.579e-02   1.278e-02    -1.182    -1.893    -0.712      7.43
   HSO4-           9.108e-06   5.813e-06    -5.041    -5.236    -0.195     40.52

------------------------------Saturation indices-------------------------------

  Phase               SI** log IAP   log K(398 K,   2 atm)

  Arcanite         -2.58     -4.07   -1.49  K2SO4
  H2O(g)            0.36     -0.00   -0.36  H2O
  Misenite        -51.29    -62.10  -10.81  K8H6(SO4)7

**For a gas, SI = log10(fugacity). Fugacity = pressure * phi / 1 atm.
  For ideal gases, phi = 1.

Reaction step 7.

Using solution 1.	
Using temperature 1.	
Using reaction 1.	

Reaction 1.	

	  1.000e+00 moles of the following reaction have been added:

	                 Relative
	Reactant            moles

	K2SO4                0.06580

	                 Relative
	Element             moles
	K                    0.13160
	O                    0.26320
	S                    0.06580

-----------------------------Solution composition------------------------------

	Elements           Molality       Moles

	K                 1.316e-01   1.316e-01
	S                 6.580e-02   6.580e-02

----------------------------Description of solution----------------------------

                                       pH  =   6.717      Charge balance
                                       pe  =   4.000      Adjusted to redox equilibrium
      Specific Conductance (µS/cm, 151°C)  = 50927
                          Density (g/cm³)  =   0.92559
                               Volume (L)  =   1.09278
                        Viscosity (mPa s)  =   0.18692
                        Activity of water  =   0.997
                 Ionic strength (mol/kgw)  =   1.974e-01
                       Mass of water (kg)  =   1.000e+00
                 Total alkalinity (eq/kg)  =   1.190e-14
                         Temperature (°C)  = 150.70
                           Pressure (atm)  =  4.79
                  Electrical balance (eq)  =  -6.156e-11
 Percent error, 100*(Cat-|An|)/(Cat+|An|)  =  -0.00
                               Iterations  =   9
                         Gamma iterations  =   3
                      Osmotic coefficient  =   0.75157
                         Density of water  =   0.91635
                                  Total H  = 1.110124e+02
                                  Total O  = 5.576942e+01

----------------------------Distribution of species----------------------------

                                                    MacInnes  MacInnes
                                MacInnes       Log       Log       Log    mole V
   Species          Molality    Activity  Molality  Activity     Gamma   cm³/mol

   OH-             1.920e-05   1.248e-05    -4.717    -4.904    -0.187    -10.35
   H+              3.563e-07   1.918e-07    -6.448    -6.717    -0.269      0.00
   H2O             5.551e+01   9.973e-01     1.744    -0.001     0.000     19.66
K             1.316e-01
   K+              1.316e-01   7.888e-02    -0.881    -1.103    -0.222     11.05
S(6)          6.580e-02
   SO4-2           6.578e-02   1.130e-02    -1.182    -1.947    -0.765      0.64
   HSO4-           1.884e-05   1.160e-05    -4.725    -4.936    -0.211     38.78

------------------------------Saturation indices-------------------------------

  Phase               SI** log IAP   log K(423 K,   5 atm)

  Arcanite         -2.57     -4.15   -1.58  K2SO4
  H2O(g)            0.67     -0.00   -0.67  H2O
  Misenite        -51.94    -62.76  -10.81  K8H6(SO4)7

**For a gas, SI = log10(fugacity). Fugacity = pressure * phi / 1 atm.
  For ideal gases, phi = 1.

Reaction step 8.

Using solution 1.	
Using temperature 1.	
Using reaction 1.	

Reaction 1.	

	  1.000e+00 moles of the following reaction have been added:

	                 Relative
	Reactant            moles

	K2SO4                0.06580

	                 Relative
	Element             moles
	K                    0.13160
	O                    0.26320
	S                    0.06580

-----------------------------Solution composition------------------------------

	Elements           Molality       Moles

	K                 1.316e-01   1.316e-01
	S                 6.580e-02   6.580e-02

----------------------------Description of solution----------------------------

                                       pH  =   6.777      Charge balance
                                       pe  =   4.000      Adjusted to redox equilibrium
      Specific Conductance (µS/cm, 174°C)  = 56061
                          Density (g/cm³)  =   0.90258
                               Volume (L)  =   1.12063
                        Viscosity (mPa s)  =   0.16084
                        Activity of water  =   0.997
                 Ionic strength (mol/kgw)  =   1.974e-01
                       Mass of water (kg)  =   1.000e+00
                 Total alkalinity (eq/kg)  =   3.154e-14
                         Temperature (°C)  = 174.20
                           Pressure (atm)  =  8.65
                  Electrical balance (eq)  =  -9.994e-11
 Percent error, 100*(Cat-|An|)/(Cat+|An|)  =  -0.00
                               Iterations  =   9
                         Gamma iterations  =   3
                      Osmotic coefficient  =   0.73392
                         Density of water  =   0.89312
                                  Total H  = 1.110124e+02
                                  Total O  = 5.576942e+01

----------------------------Distribution of species----------------------------

                                                    MacInnes  MacInnes
                                MacInnes       Log       Log       Log    mole V
   Species          Molality    Activity  Molality  Activity     Gamma   cm³/mol

   OH-             3.457e-05   2.160e-05    -4.461    -4.666    -0.204    -14.98
   H+              3.256e-07   1.671e-07    -6.487    -6.777    -0.290      0.00
   H2O             5.551e+01   9.974e-01     1.744    -0.001     0.000     20.17
K             1.316e-01
   K+              1.316e-01   7.602e-02    -0.881    -1.119    -0.238     11.29
S(6)          6.580e-02
   SO4-2           6.577e-02   9.900e-03    -1.182    -2.004    -0.822     -7.95
   HSO4-           3.425e-05   2.026e-05    -4.465    -4.693    -0.228     36.27

------------------------------Saturation indices-------------------------------

  Phase               SI** log IAP   log K(447 K,   9 atm)

  Arcanite         -2.53     -4.24   -1.71  K2SO4
  H2O(g)            0.92     -0.00   -0.92  H2O
  Misenite        -52.84    -63.65  -10.81  K8H6(SO4)7

**For a gas, SI = log10(fugacity). Fugacity = pressure * phi / 1 atm.
  For ideal gases, phi = 1.

Reaction step 9.

Using solution 1.	
Using temperature 1.	
Using reaction 1.	

Reaction 1.	

	  1.000e+00 moles of the following reaction have been added:

	                 Relative
	Reactant            moles

	K2SO4                0.06580

	                 Relative
	Element             moles
	K                    0.13160
	O                    0.26320
	S                    0.06580

-----------------------------Solution composition------------------------------

	Elements           Molality       Moles

	K                 1.316e-01   1.316e-01
	S                 6.580e-02   6.580e-02

----------------------------Description of solution----------------------------

                                       pH  =   6.870      Charge balance
                                       pe  =   4.000      Adjusted to redox equilibrium
      Specific Conductance (µS/cm, 199°C)  = 60605
                          Density (g/cm³)  =   0.87575
                               Volume (L)  =   1.15497
                        Viscosity (mPa s)  =   0.14711
                        Activity of water  =   0.997
                 Ionic strength (mol/kgw)  =   1.973e-01
                       Mass of water (kg)  =   1.000e+00
                 Total alkalinity (eq/kg)  =   9.705e-14
                         Temperature (°C)  = 198.90
                           Pressure (atm)  = 15.03
                  Electrical balance (eq)  =  -1.564e-10
 Percent error, 100*(Cat-|An|)/(Cat+|An|)  =  -0.00
                               Iterations  =  10
                         Gamma iterations  =   3
                      Osmotic coefficient  =   0.71280
                         Density of water  =   0.86595
                                  Total H  = 1.110124e+02
                                  Total O  = 5.576942e+01

----------------------------Distribution of species----------------------------

                                                    MacInnes  MacInnes
                                MacInnes       Log       Log       Log    mole V
   Species          Molality    Activity  Molality  Activity     Gamma   cm³/mol

   OH-             5.997e-05   3.570e-05    -4.222    -4.447    -0.225    -22.32
   H+              2.786e-07   1.349e-07    -6.555    -6.870    -0.315      0.00
   H2O             5.551e+01   9.975e-01     1.744    -0.001     0.000     20.80
K             1.316e-01
   K+              1.316e-01   7.274e-02    -0.881    -1.138    -0.257     11.60
S(6)          6.580e-02
   SO4-2           6.574e-02   8.420e-03    -1.182    -2.075    -0.893    -20.57
   HSO4-           5.969e-05   3.365e-05    -4.224    -4.473    -0.249     32.20

------------------------------Saturation indices-------------------------------

  Phase               SI** log IAP   log K(472 K,  15 atm)

  Arcanite         -2.46     -4.35   -1.89  K2SO4
  H2O(g)            1.15     -0.00   -1.15  H2O
  Misenite        -54.05    -64.85  -10.80  K8H6(SO4)7

**For a gas, SI = log10(fugacity). Fugacity = pressure * phi / 1 atm.
  For ideal gases, phi = 1.

------------------
End of simulation.
------------------

------------------------------------
Reading input data for simulation 3.
------------------------------------

	USE solution 1	
	REACTION 1
	 K2SO4 0.2055	
	REACTION_TEMPERATURE 
		 25.00, 38.50, 50.00, 75.80, 92.30, 123.50, 152.30, 175.20, 	
	USER_GRAPH
	 -headings 0.206.M	   
	10 DATA 	 0.9297, 0.7122, 0.5837, 0.4020, 0.3303, 0.2435, 0.1946, 0.1679,
	20 restore 10 : erase v_ : dim v_(500) : for i = 1 to step_no : READ v_(i) : next i	
	30 s = viscos : if i = 1 and step_no = 1 then put(0, 1) : put(0, 2) : put(0, 9)	
	40 dif = 1 - v_(step_no) / s : adif = dif	
	44 dmax = 0.5e0 : if abs(dif) > dmax then dif = 0 : put(1 + get(9), 9)	
	46 a = 1.00e0 : dif = dif * a	     
	50 REM	
	60 plot_xy tc, v_(step_no), line_width = 0, color = Green
	62 plot_xy tc, s, symbol = None 	
	70 if tc < 250 then put(dif^2 + get(1), 1) : put(1 + get(2), 2)	        
	END	
-----------------------------------------
Beginning of batch-reaction calculations.
-----------------------------------------

Reaction step 1.

Using solution 1.	
Using temperature 1.	
Using reaction 1.	

Reaction 1.	

	  1.000e+00 moles of the following reaction have been added:

	                 Relative
	Reactant            moles

	K2SO4                0.20550

	                 Relative
	Element             moles
	K                    0.41100
	O                    0.82200
	S                    0.20550

-----------------------------Solution composition------------------------------

	Elements           Molality       Moles

	K                 4.110e-01   4.110e-01
	S                 2.055e-01   2.055e-01

----------------------------Description of solution----------------------------

                                       pH  =   7.330      Charge balance
                                       pe  =   4.000      Adjusted to redox equilibrium
      Specific Conductance (µS/cm,  25°C)  = 41241
                          Density (g/cm³)  =   1.02476
                               Volume (L)  =   1.01078
                        Viscosity (mPa s)  =   0.91562
                        Activity of water  =   0.992
                 Ionic strength (mol/kgw)  =   6.165e-01
                       Mass of water (kg)  =   1.000e+00
                 Total alkalinity (eq/kg)  =   1.204e-15
                         Temperature (°C)  =  25.00
                  Electrical balance (eq)  =  -1.560e-11
 Percent error, 100*(Cat-|An|)/(Cat+|An|)  =  -0.00
                               Iterations  =  10
                         Gamma iterations  =   3
                      Osmotic coefficient  =   0.73591
                         Density of water  =   0.99704
                                  Total H  = 1.110124e+02
                                  Total O  = 5.632822e+01

----------------------------Distribution of species----------------------------

                                                    MacInnes  MacInnes
                                MacInnes       Log       Log       Log    mole V
   Species          Molality    Activity  Molality  Activity     Gamma   cm³/mol

   OH-             3.124e-07   2.145e-07    -6.505    -6.669    -0.163     -2.73
   H+              9.268e-08   4.681e-08    -7.033    -7.330    -0.297      0.00
   H2O             5.551e+01   9.919e-01     1.744    -0.004     0.000     18.07
K             4.110e-01
   K+              4.110e-01   2.283e-01    -0.386    -0.641    -0.255      9.63
S(6)          2.055e-01
   SO4-2           2.055e-01   2.913e-02    -0.687    -1.536    -0.848     18.77
   HSO4-           2.197e-07   1.299e-07    -6.658    -6.886    -0.228     40.93

------------------------------Saturation indices-------------------------------

  Phase               SI** log IAP   log K(298 K,   1 atm)

  Arcanite         -0.94     -2.82   -1.88  K2SO4
  H2O(g)           -1.51     -0.00    1.50  H2O
  Misenite        -49.05    -59.86  -10.81  K8H6(SO4)7

**For a gas, SI = log10(fugacity). Fugacity = pressure * phi / 1 atm.
  For ideal gases, phi = 1.

Reaction step 2.

Using solution 1.	
Using temperature 1.	
Using reaction 1.	

Reaction 1.	

	  1.000e+00 moles of the following reaction have been added:

	                 Relative
	Reactant            moles

	K2SO4                0.20550

	                 Relative
	Element             moles
	K                    0.41100
	O                    0.82200
	S                    0.20550

-----------------------------Solution composition------------------------------

	Elements           Molality       Moles

	K                 4.110e-01   4.110e-01
	S                 2.055e-01   2.055e-01

----------------------------Description of solution----------------------------

                                       pH  =   7.182      Charge balance
                                       pe  =   4.000      Adjusted to redox equilibrium
      Specific Conductance (µS/cm,  38°C)  = 52022
                          Density (g/cm³)  =   1.02012
                               Volume (L)  =   1.01538
                        Viscosity (mPa s)  =   0.69658
                        Activity of water  =   0.992
                 Ionic strength (mol/kgw)  =   6.165e-01
                       Mass of water (kg)  =   1.000e+00
                 Total alkalinity (eq/kg)  =   2.284e-15
                         Temperature (°C)  =  38.50
                  Electrical balance (eq)  =  -1.782e-11
 Percent error, 100*(Cat-|An|)/(Cat+|An|)  =  -0.00
                               Iterations  =  10
                         Gamma iterations  =   3
                      Osmotic coefficient  =   0.73812
                         Density of water  =   0.99278
                                  Total H  = 1.110124e+02
                                  Total O  = 5.632822e+01

----------------------------Distribution of species----------------------------

                                                    MacInnes  MacInnes
                                MacInnes       Log       Log       Log    mole V
   Species          Molality    Activity  Molality  Activity     Gamma   cm³/mol

   OH-             5.888e-07   3.997e-07    -6.230    -6.398    -0.168     -2.32
   H+              1.336e-07   6.578e-08    -6.874    -7.182    -0.308      0.00
   H2O             5.551e+01   9.918e-01     1.744    -0.004     0.000     18.15
K             4.110e-01
   K+              4.110e-01   2.278e-01    -0.386    -0.642    -0.256      9.99
S(6)          2.055e-01
   SO4-2           2.055e-01   2.894e-02    -0.687    -1.539    -0.851     19.45
   HSO4-           4.552e-07   2.662e-07    -6.342    -6.575    -0.233     41.69

------------------------------Saturation indices-------------------------------

  Phase               SI** log IAP   log K(311 K,   1 atm)

  Arcanite         -1.10     -2.82   -1.73  K2SO4
  H2O(g)           -1.18     -0.00    1.17  H2O
  Misenite        -48.19    -59.00  -10.81  K8H6(SO4)7

**For a gas, SI = log10(fugacity). Fugacity = pressure * phi / 1 atm.
  For ideal gases, phi = 1.

Reaction step 3.

Using solution 1.	
Using temperature 1.	
Using reaction 1.	

Reaction 1.	

	  1.000e+00 moles of the following reaction have been added:

	                 Relative
	Reactant            moles

	K2SO4                0.20550

	                 Relative
	Element             moles
	K                    0.41100
	O                    0.82200
	S                    0.20550

-----------------------------Solution composition------------------------------

	Elements           Molality       Moles

	K                 4.110e-01   4.110e-01
	S                 2.055e-01   2.055e-01

----------------------------Description of solution----------------------------

                                       pH  =   7.080      Charge balance
                                       pe  =   4.000      Adjusted to redox equilibrium
      Specific Conductance (µS/cm,  50°C)  = 61417
                          Density (g/cm³)  =   1.01520
                               Volume (L)  =   1.02031
                        Viscosity (mPa s)  =   0.57015
                        Activity of water  =   0.992
                 Ionic strength (mol/kgw)  =   6.165e-01
                       Mass of water (kg)  =   1.000e+00
                 Total alkalinity (eq/kg)  =   3.940e-15
                         Temperature (°C)  =  50.00
                  Electrical balance (eq)  =  -2.190e-11
 Percent error, 100*(Cat-|An|)/(Cat+|An|)  =  -0.00
                               Iterations  =  10
                         Gamma iterations  =   3
                      Osmotic coefficient  =   0.73771
                         Density of water  =   0.98803
                                  Total H  = 1.110124e+02
                                  Total O  = 5.632822e+01

----------------------------Distribution of species----------------------------

                                                    MacInnes  MacInnes
                                MacInnes       Log       Log       Log    mole V
   Species          Molality    Activity  Molality  Activity     Gamma   cm³/mol

   OH-             9.734e-07   6.534e-07    -6.012    -6.185    -0.173     -2.23
   H+              1.724e-07   8.309e-08    -6.763    -7.080    -0.317      0.00
   H2O             5.551e+01   9.918e-01     1.744    -0.004     0.000     18.23
K             4.110e-01
   K+              4.110e-01   2.265e-01    -0.386    -0.645    -0.259     10.23
S(6)          2.055e-01
   SO4-2           2.055e-01   2.839e-02    -0.687    -1.547    -0.860     19.40
   HSO4-           8.010e-07   4.631e-07    -6.096    -6.334    -0.238     42.08

------------------------------Saturation indices-------------------------------

  Phase               SI** log IAP   log K(323 K,   1 atm)

  Arcanite         -1.21     -2.84   -1.63  K2SO4
  H2O(g)           -0.92     -0.00    0.92  H2O
  Misenite        -47.66    -58.47  -10.81  K8H6(SO4)7

**For a gas, SI = log10(fugacity). Fugacity = pressure * phi / 1 atm.
  For ideal gases, phi = 1.

Reaction step 4.

Using solution 1.	
Using temperature 1.	
Using reaction 1.	

Reaction 1.	

	  1.000e+00 moles of the following reaction have been added:

	                 Relative
	Reactant            moles

	K2SO4                0.20550

	                 Relative
	Element             moles
	K                    0.41100
	O                    0.82200
	S                    0.20550

-----------------------------Solution composition------------------------------

	Elements           Molality       Moles

	K                 4.110e-01   4.110e-01
	S                 2.055e-01   2.055e-01

----------------------------Description of solution----------------------------

                                       pH  =   6.921      Charge balance
                                       pe  =   4.000      Adjusted to redox equilibrium
      Specific Conductance (µS/cm,  76°C)  = 82591
                          Density (g/cm³)  =   1.00140
                               Volume (L)  =   1.03436
                        Viscosity (mPa s)  =   0.39359
                        Activity of water  =   0.992
                 Ionic strength (mol/kgw)  =   6.165e-01
                       Mass of water (kg)  =   1.000e+00
                 Total alkalinity (eq/kg)  =   1.050e-14
                         Temperature (°C)  =  75.80
                  Electrical balance (eq)  =  -4.297e-11
 Percent error, 100*(Cat-|An|)/(Cat+|An|)  =  -0.00
                               Iterations  =  10
                         Gamma iterations  =   3
                      Osmotic coefficient  =   0.73089
                         Density of water  =   0.97436
                                  Total H  = 1.110124e+02
                                  Total O  = 5.632822e+01

----------------------------Distribution of species----------------------------

                                                    MacInnes  MacInnes
                                MacInnes       Log       Log       Log    mole V
   Species          Molality    Activity  Molality  Activity     Gamma   cm³/mol

   OH-             2.710e-06   1.761e-06    -5.567    -5.754    -0.187     -2.63
   H+              2.617e-07   1.200e-07    -6.582    -6.921    -0.339      0.00
   H2O             5.551e+01   9.919e-01     1.744    -0.004     0.000     18.49
K             4.110e-01
   K+              4.110e-01   2.212e-01    -0.386    -0.655    -0.269     10.62
S(6)          2.055e-01
   SO4-2           2.055e-01   2.626e-02    -0.687    -1.581    -0.893     17.89
   HSO4-           2.448e-06   1.371e-06    -5.611    -5.863    -0.252     42.38

------------------------------Saturation indices-------------------------------

  Phase               SI** log IAP   log K(348 K,   1 atm)

  Arcanite         -1.39     -2.89   -1.50  K2SO4
  H2O(g)           -0.41     -0.00    0.41  H2O
  Misenite        -47.03    -57.83  -10.81  K8H6(SO4)7

**For a gas, SI = log10(fugacity). Fugacity = pressure * phi / 1 atm.
  For ideal gases, phi = 1.

Reaction step 5.

Using solution 1.	
Using temperature 1.	
Using reaction 1.	

Reaction 1.	

	  1.000e+00 moles of the following reaction have been added:

	                 Relative
	Reactant            moles

	K2SO4                0.20550

	                 Relative
	Element             moles
	K                    0.41100
	O                    0.82200
	S                    0.20550

-----------------------------Solution composition------------------------------

	Elements           Molality       Moles

	K                 4.110e-01   4.110e-01
	S                 2.055e-01   2.055e-01

----------------------------Description of solution----------------------------

                                       pH  =   6.860      Charge balance
                                       pe  =   4.000      Adjusted to redox equilibrium
      Specific Conductance (µS/cm,  92°C)  = 95757
                          Density (g/cm³)  =   0.99084
                               Volume (L)  =   1.04539
                        Viscosity (mPa s)  =   0.32418
                        Activity of water  =   0.992
                 Ionic strength (mol/kgw)  =   6.165e-01
                       Mass of water (kg)  =   1.000e+00
                 Total alkalinity (eq/kg)  =  -4.765e-15
                         Temperature (°C)  =  92.30
                  Electrical balance (eq)  =  -2.588e-10
 Percent error, 100*(Cat-|An|)/(Cat+|An|)  =  -0.00
                               Iterations  =  11
                         Gamma iterations  =   3
                      Osmotic coefficient  =   0.72329
                         Density of water  =   0.96375
                                  Total H  = 1.110124e+02
                                  Total O  = 5.632822e+01

----------------------------Distribution of species----------------------------

                                                    MacInnes  MacInnes
                                MacInnes       Log       Log       Log    mole V
   Species          Molality    Activity  Molality  Activity     Gamma   cm³/mol

   OH-             4.888e-06   3.100e-06    -5.311    -5.509    -0.198     -3.29
   H+              3.119e-07   1.381e-07    -6.506    -6.860    -0.354      0.00
   H2O             5.551e+01   9.920e-01     1.744    -0.003     0.000     18.69
K             4.110e-01
   K+              4.110e-01   2.167e-01    -0.386    -0.664    -0.278     10.82
S(6)          2.055e-01
   SO4-2           2.055e-01   2.447e-02    -0.687    -1.611    -0.924     16.15
   HSO4-           4.576e-06   2.500e-06    -5.339    -5.602    -0.263     42.26

------------------------------Saturation indices-------------------------------

  Phase               SI** log IAP   log K(365 K,   1 atm)

  Arcanite         -1.47     -2.94   -1.47  K2SO4
  H2O(g)           -0.13     -0.00    0.13  H2O
  Misenite        -46.95    -57.75  -10.81  K8H6(SO4)7

**For a gas, SI = log10(fugacity). Fugacity = pressure * phi / 1 atm.
  For ideal gases, phi = 1.

Reaction step 6.

Using solution 1.	
Using temperature 1.	
Using reaction 1.	

Reaction 1.	

	  1.000e+00 moles of the following reaction have been added:

	                 Relative
	Reactant            moles

	K2SO4                0.20550

	                 Relative
	Element             moles
	K                    0.41100
	O                    0.82200
	S                    0.20550

-----------------------------Solution composition------------------------------

	Elements           Molality       Moles

	K                 4.110e-01   4.110e-01
	S                 2.055e-01   2.055e-01

----------------------------Description of solution----------------------------

                                       pH  =   6.812      Charge balance
                                       pe  =   4.000      Adjusted to redox equilibrium
      Specific Conductance (µS/cm, 124°C)  = 118748
                          Density (g/cm³)  =   0.96760
                               Volume (L)  =   1.07049
                        Viscosity (mPa s)  =   0.24011
                        Activity of water  =   0.992
                 Ionic strength (mol/kgw)  =   6.165e-01
                       Mass of water (kg)  =   1.000e+00
                 Total alkalinity (eq/kg)  =   4.620e-16
                         Temperature (°C)  = 123.50
                           Pressure (atm)  =  2.19
                  Electrical balance (eq)  =   1.264e-12
 Percent error, 100*(Cat-|An|)/(Cat+|An|)  =   0.00
                               Iterations  =  12
                         Gamma iterations  =   4
                      Osmotic coefficient  =   0.70399
                         Density of water  =   0.94026
                                  Total H  = 1.110124e+02
                                  Total O  = 5.632822e+01

----------------------------Distribution of species----------------------------

                                                    MacInnes  MacInnes
                                MacInnes       Log       Log       Log    mole V
   Species          Molality    Activity  Molality  Activity     Gamma   cm³/mol

   OH-             1.327e-05   7.959e-06    -4.877    -5.099    -0.222     -5.45
   H+              3.743e-07   1.540e-07    -6.427    -6.812    -0.386      0.00
   H2O             5.551e+01   9.922e-01     1.744    -0.003     0.000     19.16
K             4.110e-01
   K+              4.110e-01   2.063e-01    -0.386    -0.685    -0.299     11.19
S(6)          2.055e-01
   SO4-2           2.055e-01   2.066e-02    -0.687    -1.685    -0.998     11.49
   HSO4-           1.290e-05   6.662e-06    -4.889    -5.176    -0.287     41.43

------------------------------Saturation indices-------------------------------

  Phase               SI** log IAP   log K(396 K,   2 atm)

  Arcanite         -1.57     -3.06   -1.49  K2SO4
  H2O(g)            0.33     -0.00   -0.33  H2O
  Misenite        -47.34    -58.15  -10.81  K8H6(SO4)7

**For a gas, SI = log10(fugacity). Fugacity = pressure * phi / 1 atm.
  For ideal gases, phi = 1.

Reaction step 7.

Using solution 1.	
Using temperature 1.	
Using reaction 1.	

Reaction 1.	

	  1.000e+00 moles of the following reaction have been added:

	                 Relative
	Reactant            moles

	K2SO4                0.20550

	                 Relative
	Element             moles
	K                    0.41100
	O                    0.82200
	S                    0.20550

-----------------------------Solution composition------------------------------

	Elements           Molality       Moles

	K                 4.110e-01   4.110e-01
	S                 2.055e-01   2.055e-01

----------------------------Description of solution----------------------------

                                       pH  =   6.832      Charge balance
                                       pe  =   4.000      Adjusted to redox equilibrium
      Specific Conductance (µS/cm, 152°C)  = 136820
                          Density (g/cm³)  =   0.94256
                               Volume (L)  =   1.09893
                        Viscosity (mPa s)  =   0.19300
                        Activity of water  =   0.992
                 Ionic strength (mol/kgw)  =   6.165e-01
                       Mass of water (kg)  =   1.000e+00
                 Total alkalinity (eq/kg)  =   2.733e-15
                         Temperature (°C)  = 152.30
                           Pressure (atm)  =  5.00
                  Electrical balance (eq)  =  -4.045e-12
 Percent error, 100*(Cat-|An|)/(Cat+|An|)  =  -0.00
                               Iterations  =  13
                         Gamma iterations  =   4
                      Osmotic coefficient  =   0.68165
                         Density of water  =   0.91485
                                  Total H  = 1.110124e+02
                                  Total O  = 5.632822e+01

----------------------------Distribution of species----------------------------

                                                    MacInnes  MacInnes
                                MacInnes       Log       Log       Log    mole V
   Species          Molality    Activity  Molality  Activity     Gamma   cm³/mol

   OH-             2.965e-05   1.670e-05    -4.528    -4.777    -0.249     -8.84
   H+              3.878e-07   1.473e-07    -6.411    -6.832    -0.420      0.00
   H2O             5.551e+01   9.925e-01     1.744    -0.003     0.000     19.69
K             4.110e-01
   K+              4.110e-01   1.954e-01    -0.386    -0.709    -0.323     11.56
S(6)          2.055e-01
   SO4-2           2.055e-01   1.702e-02    -0.687    -1.769    -1.082      5.38
   HSO4-           2.926e-05   1.419e-05    -4.534    -4.848    -0.314     39.86

------------------------------Saturation indices-------------------------------

  Phase               SI** log IAP   log K(425 K,   5 atm)

  Arcanite         -1.60     -3.19   -1.59  K2SO4
  H2O(g)            0.68     -0.00   -0.69  H2O
  Misenite        -48.23    -59.05  -10.81  K8H6(SO4)7

**For a gas, SI = log10(fugacity). Fugacity = pressure * phi / 1 atm.
  For ideal gases, phi = 1.

Reaction step 8.

Using solution 1.	
Using temperature 1.	
Using reaction 1.	

Reaction 1.	

	  1.000e+00 moles of the following reaction have been added:

	                 Relative
	Reactant            moles

	K2SO4                0.20550

	                 Relative
	Element             moles
	K                    0.41100
	O                    0.82200
	S                    0.20550

-----------------------------Solution composition------------------------------

	Elements           Molality       Moles

	K                 4.110e-01   4.110e-01
	S                 2.055e-01   2.055e-01

----------------------------Description of solution----------------------------

                                       pH  =   6.882      Charge balance
                                       pe  =   4.000      Adjusted to redox equilibrium
      Specific Conductance (µS/cm, 175°C)  = 148632
                          Density (g/cm³)  =   0.92019
                               Volume (L)  =   1.12565
                        Viscosity (mPa s)  =   0.16741
                        Activity of water  =   0.993
                 Ionic strength (mol/kgw)  =   6.164e-01
                       Mass of water (kg)  =   1.000e+00
                 Total alkalinity (eq/kg)  =   8.084e-15
                         Temperature (°C)  = 175.20
                           Pressure (atm)  =  8.86
                  Electrical balance (eq)  =  -2.462e-11
 Percent error, 100*(Cat-|An|)/(Cat+|An|)  =  -0.00
                               Iterations  =  13
                         Gamma iterations  =   4
                      Osmotic coefficient  =   0.66104
                         Density of water  =   0.89208
                                  Total H  = 1.110124e+02
                                  Total O  = 5.632822e+01

----------------------------Distribution of species----------------------------

                                                    MacInnes  MacInnes
                                MacInnes       Log       Log       Log    mole V
   Species          Molality    Activity  Molality  Activity     Gamma   cm³/mol

   OH-             5.224e-05   2.773e-05    -4.282    -4.557    -0.275    -12.97
   H+              3.726e-07   1.314e-07    -6.429    -6.882    -0.453      0.00
   H2O             5.551e+01   9.927e-01     1.744    -0.003     0.000     20.20
K             4.110e-01
   K+              4.110e-01   1.859e-01    -0.386    -0.731    -0.345     11.94
S(6)          2.055e-01
   SO4-2           2.054e-01   1.421e-02    -0.687    -1.847    -1.160     -1.18
   HSO4-           5.187e-05   2.372e-05    -4.285    -4.625    -0.340     37.84

------------------------------Saturation indices-------------------------------

  Phase               SI** log IAP   log K(448 K,   9 atm)

  Arcanite         -1.59     -3.31   -1.72  K2SO4
  H2O(g)            0.92     -0.00   -0.93  H2O
  Misenite        -49.25    -60.07  -10.81  K8H6(SO4)7

**For a gas, SI = log10(fugacity). Fugacity = pressure * phi / 1 atm.
  For ideal gases, phi = 1.

------------------
End of simulation.
------------------

------------------------------------
Reading input data for simulation 4.
------------------------------------

	USE solution 1	
	REACTION 1
	 K2SO4 0.3050	
	REACTION_TEMPERATURE 
		 25.00, 39.40, 50.00, 75.10, 92.80, 124.10, 150.40, 175.40, 	
	USER_GRAPH
	 -headings 0.305.M
	10 DATA 	 0.9618, 0.7194, 0.5991, 0.4182, 0.3396, 0.2503, 0.2040, 0.1735, 	
	20 restore 10 : erase v_ : dim v_(500) : for i = 1 to step_no : READ v_(i) : next i	
	30 s = viscos : if i = 1 and step_no = 1 then put(0, 1) : put(0, 2) : put(0, 9)	
	40 dif = 1 - v_(step_no) / s : adif = dif	
	44 dmax = 0.5e0 : if abs(dif) > dmax then dif = 0 : put(1 + get(9), 9)	
	46 a = 1.00e0 : dif = dif * a	     
	50 REM	
	60 plot_xy tc, v_(step_no), line_width = 0, color = Blue
	62 plot_xy tc, s, symbol = None 	
	70 if tc < 250 then put(dif^2 + get(1), 1) : put(1 + get(2), 2)	        
	END	
-----------------------------------------
Beginning of batch-reaction calculations.
-----------------------------------------

Reaction step 1.

Using solution 1.	
Using temperature 1.	
Using reaction 1.	

Reaction 1.	

	  1.000e+00 moles of the following reaction have been added:

	                 Relative
	Reactant            moles

	K2SO4                0.30500

	                 Relative
	Element             moles
	K                    0.61000
	O                    1.22000
	S                    0.30500

-----------------------------Solution composition------------------------------

	Elements           Molality       Moles

	K                 6.100e-01   6.100e-01
	S                 3.050e-01   3.050e-01

----------------------------Description of solution----------------------------

                                       pH  =   7.369      Charge balance
                                       pe  =   4.000      Adjusted to redox equilibrium
      Specific Conductance (µS/cm,  25°C)  = 57434
                          Density (g/cm³)  =   1.03773
                               Volume (L)  =   1.01486
                        Viscosity (mPa s)  =   0.92818
                        Activity of water  =   0.988
                 Ionic strength (mol/kgw)  =   9.150e-01
                       Mass of water (kg)  =   1.000e+00
                 Total alkalinity (eq/kg)  =   1.628e-17
                         Temperature (°C)  =  25.00
                  Electrical balance (eq)  =  -6.731e-13
 Percent error, 100*(Cat-|An|)/(Cat+|An|)  =  -0.00
                               Iterations  =  13
                         Gamma iterations  =   4
                      Osmotic coefficient  =   0.71104
                         Density of water  =   0.99704
                                  Total H  = 1.110124e+02
                                  Total O  = 5.672622e+01

----------------------------Distribution of species----------------------------

                                                    MacInnes  MacInnes
                                MacInnes       Log       Log       Log    mole V
   Species          Molality    Activity  Molality  Activity     Gamma   cm³/mol

   OH-             3.451e-07   2.338e-07    -6.462    -6.631    -0.169     -2.24
   H+              9.211e-08   4.279e-08    -7.036    -7.369    -0.333      0.00
   H2O             5.551e+01   9.883e-01     1.744    -0.005     0.000     18.07
K             6.100e-01
   K+              6.100e-01   3.124e-01    -0.215    -0.505    -0.291      9.80
S(6)          3.050e-01
   SO4-2           3.050e-01   3.403e-02    -0.516    -1.468    -0.952     19.41
   HSO4-           2.530e-07   1.387e-07    -6.597    -6.858    -0.261     41.07

------------------------------Saturation indices-------------------------------

  Phase               SI** log IAP   log K(298 K,   1 atm)

  Arcanite         -0.60     -2.48   -1.88  K2SO4
  H2O(g)           -1.51     -0.01    1.50  H2O
  Misenite        -47.72    -58.53  -10.81  K8H6(SO4)7

**For a gas, SI = log10(fugacity). Fugacity = pressure * phi / 1 atm.
  For ideal gases, phi = 1.

Reaction step 2.

Using solution 1.	
Using temperature 1.	
Using reaction 1.	

Reaction 1.	

	  1.000e+00 moles of the following reaction have been added:

	                 Relative
	Reactant            moles

	K2SO4                0.30500

	                 Relative
	Element             moles
	K                    0.61000
	O                    1.22000
	S                    0.30500

-----------------------------Solution composition------------------------------

	Elements           Molality       Moles

	K                 6.100e-01   6.100e-01
	S                 3.050e-01   3.050e-01

----------------------------Description of solution----------------------------

                                       pH  =   7.216      Charge balance
                                       pe  =   4.000      Adjusted to redox equilibrium
      Specific Conductance (µS/cm,  39°C)  = 73336
                          Density (g/cm³)  =   1.03252
                               Volume (L)  =   1.01998
                        Viscosity (mPa s)  =   0.69665
                        Activity of water  =   0.988
                 Ionic strength (mol/kgw)  =   9.150e-01
                       Mass of water (kg)  =   1.000e+00
                 Total alkalinity (eq/kg)  =   7.345e-17
                         Temperature (°C)  =  39.40
                  Electrical balance (eq)  =   2.248e-13
 Percent error, 100*(Cat-|An|)/(Cat+|An|)  =   0.00
                               Iterations  =  13
                         Gamma iterations  =   4
                      Osmotic coefficient  =   0.71453
                         Density of water  =   0.99244
                                  Total H  = 1.110124e+02
                                  Total O  = 5.672622e+01

----------------------------Distribution of species----------------------------

                                                    MacInnes  MacInnes
                                MacInnes       Log       Log       Log    mole V
   Species          Molality    Activity  Molality  Activity     Gamma   cm³/mol

   OH-             6.837e-07   4.569e-07    -6.165    -6.340    -0.175     -1.80
   H+              1.354e-07   6.088e-08    -6.868    -7.216    -0.347      0.00
   H2O             5.551e+01   9.883e-01     1.744    -0.005     0.000     18.15
K             6.100e-01
   K+              6.100e-01   3.119e-01    -0.215    -0.506    -0.291     10.16
S(6)          3.050e-01
   SO4-2           3.050e-01   3.395e-02    -0.516    -1.469    -0.953     20.21
   HSO4-           5.482e-07   2.966e-07    -6.261    -6.528    -0.267     41.87

------------------------------Saturation indices-------------------------------

  Phase               SI** log IAP   log K(312 K,   1 atm)

  Arcanite         -0.76     -2.48   -1.72  K2SO4
  H2O(g)           -1.16     -0.01    1.15  H2O
  Misenite        -46.82    -57.63  -10.81  K8H6(SO4)7

**For a gas, SI = log10(fugacity). Fugacity = pressure * phi / 1 atm.
  For ideal gases, phi = 1.

Reaction step 3.

Using solution 1.	
Using temperature 1.	
Using reaction 1.	

Reaction 1.	

	  1.000e+00 moles of the following reaction have been added:

	                 Relative
	Reactant            moles

	K2SO4                0.30500

	                 Relative
	Element             moles
	K                    0.61000
	O                    1.22000
	S                    0.30500

-----------------------------Solution composition------------------------------

	Elements           Molality       Moles

	K                 6.100e-01   6.100e-01
	S                 3.050e-01   3.050e-01

----------------------------Description of solution----------------------------

                                       pH  =   7.125      Charge balance
                                       pe  =   4.000      Adjusted to redox equilibrium
      Specific Conductance (µS/cm,  50°C)  = 85265
                          Density (g/cm³)  =   1.02786
                               Volume (L)  =   1.02461
                        Viscosity (mPa s)  =   0.58088
                        Activity of water  =   0.988
                 Ionic strength (mol/kgw)  =   9.150e-01
                       Mass of water (kg)  =   1.000e+00
                 Total alkalinity (eq/kg)  =   1.903e-16
                         Temperature (°C)  =  50.00
                  Electrical balance (eq)  =   1.022e-12
 Percent error, 100*(Cat-|An|)/(Cat+|An|)  =   0.00
                               Iterations  =  13
                         Gamma iterations  =   4
                      Osmotic coefficient  =   0.71475
                         Density of water  =   0.98803
                                  Total H  = 1.110124e+02
                                  Total O  = 5.672622e+01

----------------------------Distribution of species----------------------------

                                                    MacInnes  MacInnes
                                MacInnes       Log       Log       Log    mole V
   Species          Molality    Activity  Molality  Activity     Gamma   cm³/mol

   OH-             1.091e-06   7.207e-07    -5.962    -6.142    -0.180     -1.70
   H+              1.710e-07   7.506e-08    -6.767    -7.125    -0.358      0.00
   H2O             5.551e+01   9.883e-01     1.744    -0.005     0.000     18.23
K             6.100e-01
   K+              6.100e-01   3.102e-01    -0.215    -0.508    -0.294     10.37
S(6)          3.050e-01
   SO4-2           3.050e-01   3.340e-02    -0.516    -1.476    -0.961     20.22
   HSO4-           9.203e-07   4.920e-07    -6.036    -6.308    -0.272     42.24

------------------------------Saturation indices-------------------------------

  Phase               SI** log IAP   log K(323 K,   1 atm)

  Arcanite         -0.86     -2.49   -1.63  K2SO4
  H2O(g)           -0.92     -0.01    0.92  H2O
  Misenite        -46.34    -57.15  -10.81  K8H6(SO4)7

**For a gas, SI = log10(fugacity). Fugacity = pressure * phi / 1 atm.
  For ideal gases, phi = 1.

Reaction step 4.

Using solution 1.	
Using temperature 1.	
Using reaction 1.	

Reaction 1.	

	  1.000e+00 moles of the following reaction have been added:

	                 Relative
	Reactant            moles

	K2SO4                0.30500

	                 Relative
	Element             moles
	K                    0.61000
	O                    1.22000
	S                    0.30500

-----------------------------Solution composition------------------------------

	Elements           Molality       Moles

	K                 6.100e-01   6.100e-01
	S                 3.050e-01   3.050e-01

----------------------------Description of solution----------------------------

                                       pH  =   6.970      Charge balance
                                       pe  =   4.000      Adjusted to redox equilibrium
      Specific Conductance (µS/cm,  75°C)  = 113467
                          Density (g/cm³)  =   1.01437
                               Volume (L)  =   1.03823
                        Viscosity (mPa s)  =   0.40597
                        Activity of water  =   0.988
                 Ionic strength (mol/kgw)  =   9.150e-01
                       Mass of water (kg)  =   1.000e+00
                 Total alkalinity (eq/kg)  =   2.056e-16
                         Temperature (°C)  =  75.10
                  Electrical balance (eq)  =   4.577e-12
 Percent error, 100*(Cat-|An|)/(Cat+|An|)  =   0.00
                               Iterations  =  14
                         Gamma iterations  =   4
                      Osmotic coefficient  =   0.70920
                         Density of water  =   0.97478
                                  Total H  = 1.110124e+02
                                  Total O  = 5.672622e+01

----------------------------Distribution of species----------------------------

                                                    MacInnes  MacInnes
                                MacInnes       Log       Log       Log    mole V
   Species          Molality    Activity  Molality  Activity     Gamma   cm³/mol

   OH-             2.986e-06   1.904e-06    -5.525    -5.720    -0.195     -2.02
   H+              2.584e-07   1.070e-07    -6.588    -6.970    -0.383      0.00
   H2O             5.551e+01   9.884e-01     1.744    -0.005     0.000     18.48
K             6.100e-01
   K+              6.100e-01   3.029e-01    -0.215    -0.519    -0.304     10.75
S(6)          3.050e-01
   SO4-2           3.050e-01   3.091e-02    -0.516    -1.510    -0.994     19.00
   HSO4-           2.728e-06   1.408e-06    -5.564    -5.851    -0.287     42.59

------------------------------Saturation indices-------------------------------

  Phase               SI** log IAP   log K(348 K,   1 atm)

  Arcanite         -1.04     -2.55   -1.50  K2SO4
  H2O(g)           -0.43     -0.01    0.42  H2O
  Misenite        -45.74    -56.54  -10.81  K8H6(SO4)7

**For a gas, SI = log10(fugacity). Fugacity = pressure * phi / 1 atm.
  For ideal gases, phi = 1.

Reaction step 5.

Using solution 1.	
Using temperature 1.	
Using reaction 1.	

Reaction 1.	

	  1.000e+00 moles of the following reaction have been added:

	                 Relative
	Reactant            moles

	K2SO4                0.30500

	                 Relative
	Element             moles
	K                    0.61000
	O                    1.22000
	S                    0.30500

-----------------------------Solution composition------------------------------

	Elements           Molality       Moles

	K                 6.100e-01   6.100e-01
	S                 3.050e-01   3.050e-01

----------------------------Description of solution----------------------------

                                       pH  =   6.905      Charge balance
                                       pe  =   4.000      Adjusted to redox equilibrium
      Specific Conductance (µS/cm,  93°C)  = 132644
                          Density (g/cm³)  =   1.00302
                               Volume (L)  =   1.04997
                        Viscosity (mPa s)  =   0.33020
                        Activity of water  =   0.989
                 Ionic strength (mol/kgw)  =   9.150e-01
                       Mass of water (kg)  =   1.000e+00
                 Total alkalinity (eq/kg)  =   7.446e-16
                         Temperature (°C)  =  92.80
                  Electrical balance (eq)  =   8.104e-12
 Percent error, 100*(Cat-|An|)/(Cat+|An|)  =   0.00
                               Iterations  =  14
                         Gamma iterations  =   4
                      Osmotic coefficient  =   0.70138
                         Density of water  =   0.96340
                                  Total H  = 1.110124e+02
                                  Total O  = 5.672622e+01

----------------------------Distribution of species----------------------------

                                                    MacInnes  MacInnes
                                MacInnes       Log       Log       Log    mole V
   Species          Molality    Activity  Molality  Activity     Gamma   cm³/mol

   OH-             5.646e-06   3.492e-06    -5.248    -5.457    -0.209     -2.67
   H+              3.141e-07   1.246e-07    -6.503    -6.905    -0.402      0.00
   H2O             5.551e+01   9.885e-01     1.744    -0.005     0.000     18.70
K             6.100e-01
   K+              6.100e-01   2.958e-01    -0.215    -0.529    -0.314     10.97
S(6)          3.050e-01
   SO4-2           3.050e-01   2.850e-02    -0.516    -1.545    -1.029     17.37
   HSO4-           5.332e-06   2.670e-06    -5.273    -5.574    -0.300     42.51

------------------------------Saturation indices-------------------------------

  Phase               SI** log IAP   log K(365 K,   1 atm)

  Arcanite         -1.14     -2.60   -1.47  K2SO4
  H2O(g)           -0.12     -0.01    0.12  H2O
  Misenite        -45.67    -56.48  -10.81  K8H6(SO4)7

**For a gas, SI = log10(fugacity). Fugacity = pressure * phi / 1 atm.
  For ideal gases, phi = 1.

Reaction step 6.

Using solution 1.	
Using temperature 1.	
Using reaction 1.	

Reaction 1.	

	  1.000e+00 moles of the following reaction have been added:

	                 Relative
	Reactant            moles

	K2SO4                0.30500

	                 Relative
	Element             moles
	K                    0.61000
	O                    1.22000
	S                    0.30500

-----------------------------Solution composition------------------------------

	Elements           Molality       Moles

	K                 6.100e-01   6.100e-01
	S                 3.050e-01   3.050e-01

----------------------------Description of solution----------------------------

                                       pH  =   6.856      Charge balance
                                       pe  =   4.000      Adjusted to redox equilibrium
      Specific Conductance (µS/cm, 124°C)  = 163507
                          Density (g/cm³)  =   0.97963
                               Volume (L)  =   1.07505
                        Viscosity (mPa s)  =   0.24522
                        Activity of water  =   0.989
                 Ionic strength (mol/kgw)  =   9.150e-01
                       Mass of water (kg)  =   1.000e+00
                 Total alkalinity (eq/kg)  =   4.126e-15
                         Temperature (°C)  = 124.10
                           Pressure (atm)  =  2.23
                  Electrical balance (eq)  =   1.188e-11
 Percent error, 100*(Cat-|An|)/(Cat+|An|)  =   0.00
                               Iterations  =  14
                         Gamma iterations  =   4
                      Osmotic coefficient  =   0.68194
                         Density of water  =   0.93977
                                  Total H  = 1.110124e+02
                                  Total O  = 5.672622e+01

----------------------------Distribution of species----------------------------

                                                    MacInnes  MacInnes
                                MacInnes       Log       Log       Log    mole V
   Species          Molality    Activity  Molality  Activity     Gamma   cm³/mol

   OH-             1.539e-05   8.923e-06    -4.813    -5.049    -0.237     -4.72
   H+              3.826e-07   1.393e-07    -6.417    -6.856    -0.439      0.00
   H2O             5.551e+01   9.888e-01     1.744    -0.005     0.000     19.17
K             6.100e-01
   K+              6.100e-01   2.804e-01    -0.215    -0.552    -0.338     11.35
S(6)          3.050e-01
   SO4-2           3.050e-01   2.367e-02    -0.516    -1.626    -1.110     13.22
   HSO4-           1.500e-05   7.044e-06    -4.824    -5.152    -0.328     41.80

------------------------------Saturation indices-------------------------------

  Phase               SI** log IAP   log K(397 K,   2 atm)

  Arcanite         -1.24     -2.73   -1.49  K2SO4
  H2O(g)            0.34     -0.00   -0.34  H2O
  Misenite        -46.13    -56.94  -10.81  K8H6(SO4)7

**For a gas, SI = log10(fugacity). Fugacity = pressure * phi / 1 atm.
  For ideal gases, phi = 1.

Reaction step 7.

Using solution 1.	
Using temperature 1.	
Using reaction 1.	

Reaction 1.	

	  1.000e+00 moles of the following reaction have been added:

	                 Relative
	Reactant            moles

	K2SO4                0.30500

	                 Relative
	Element             moles
	K                    0.61000
	O                    1.22000
	S                    0.30500

-----------------------------Solution composition------------------------------

	Elements           Molality       Moles

	K                 6.100e-01   6.100e-01
	S                 3.050e-01   3.050e-01

----------------------------Description of solution----------------------------

                                       pH  =   6.870      Charge balance
                                       pe  =   4.000      Adjusted to redox equilibrium
      Specific Conductance (µS/cm, 150°C)  = 185304
                          Density (g/cm³)  =   0.95683
                               Volume (L)  =   1.10067
                        Viscosity (mPa s)  =   0.20095
                        Activity of water  =   0.989
                 Ionic strength (mol/kgw)  =   9.150e-01
                       Mass of water (kg)  =   1.000e+00
                 Total alkalinity (eq/kg)  =   1.295e-14
                         Temperature (°C)  = 150.40
                           Pressure (atm)  =  4.75
                  Electrical balance (eq)  =  -2.957e-12
 Percent error, 100*(Cat-|An|)/(Cat+|An|)  =  -0.00
                               Iterations  =  14
                         Gamma iterations  =   4
                      Osmotic coefficient  =   0.66125
                         Density of water  =   0.91664
                                  Total H  = 1.110124e+02
                                  Total O  = 5.672622e+01

----------------------------Distribution of species----------------------------

                                                    MacInnes  MacInnes
                                MacInnes       Log       Log       Log    mole V
   Species          Molality    Activity  Molality  Activity     Gamma   cm³/mol

   OH-             3.216e-05   1.746e-05    -4.493    -4.758    -0.265     -7.59
   H+              4.038e-07   1.350e-07    -6.394    -6.870    -0.476      0.00
   H2O             5.551e+01   9.892e-01     1.744    -0.005     0.000     19.65
K             6.100e-01
   K+              6.100e-01   2.656e-01    -0.215    -0.576    -0.361     11.73
S(6)          3.050e-01
   SO4-2           3.050e-01   1.952e-02    -0.516    -1.710    -1.194      8.43
   HSO4-           3.175e-05   1.396e-05    -4.498    -4.855    -0.357     40.57

------------------------------Saturation indices-------------------------------

  Phase               SI** log IAP   log K(423 K,   5 atm)

  Arcanite         -1.28     -2.86   -1.58  K2SO4
  H2O(g)            0.66     -0.00   -0.66  H2O
  Misenite        -46.98    -57.79  -10.81  K8H6(SO4)7

**For a gas, SI = log10(fugacity). Fugacity = pressure * phi / 1 atm.
  For ideal gases, phi = 1.

Reaction step 8.

Using solution 1.	
Using temperature 1.	
Using reaction 1.	

Reaction 1.	

	  1.000e+00 moles of the following reaction have been added:

	                 Relative
	Reactant            moles

	K2SO4                0.30500

	                 Relative
	Element             moles
	K                    0.61000
	O                    1.22000
	S                    0.30500

-----------------------------Solution composition------------------------------

	Elements           Molality       Moles

	K                 6.100e-01   6.100e-01
	S                 3.050e-01   3.050e-01

----------------------------Description of solution----------------------------

                                       pH  =   6.919      Charge balance
                                       pe  =   4.000      Adjusted to redox equilibrium
      Specific Conductance (µS/cm, 175°C)  = 201940
                          Density (g/cm³)  =   0.93248
[...]
                               Iterations  =  14
                         Gamma iterations  =   4
                      Osmotic coefficient  =   0.69820
                         Density of water  =   0.98794
                                  Total H  = 1.110124e+02
                                  Total O  = 5.713422e+01

----------------------------Distribution of species----------------------------

                                                    MacInnes  MacInnes
                                MacInnes       Log       Log       Log    mole V
   Species          Molality    Activity  Molality  Activity     Gamma   cm³/mol

   OH-             1.193e-06   7.840e-07    -5.923    -6.106    -0.182     -1.18
   H+              1.682e-07   6.957e-08    -6.774    -7.158    -0.383      0.00
   H2O             5.551e+01   9.848e-01     1.744    -0.007     0.000     18.24
K             8.140e-01
   K+              8.140e-01   3.885e-01    -0.089    -0.411    -0.321     10.51
S(6)          4.070e-01
   SO4-2           4.070e-01   3.731e-02    -0.390    -1.428    -1.038     20.93
   HSO4-           1.025e-06   5.126e-07    -5.989    -6.290    -0.301     42.38

------------------------------Saturation indices-------------------------------

  Phase               SI** log IAP   log K(323 K,   1 atm)

  Arcanite         -0.62     -2.25   -1.63  K2SO4
  H2O(g)           -0.92     -0.01    0.91  H2O
  Misenite        -45.42    -56.23  -10.81  K8H6(SO4)7

**For a gas, SI = log10(fugacity). Fugacity = pressure * phi / 1 atm.
  For ideal gases, phi = 1.

Reaction step 4.

Using solution 1.	
Using temperature 1.	
Using reaction 1.	

Reaction 1.	

	  1.000e+00 moles of the following reaction have been added:

	                 Relative
	Reactant            moles

	K2SO4                0.40700

	                 Relative
	Element             moles
	K                    0.81400
	O                    1.62800
	S                    0.40700

-----------------------------Solution composition------------------------------

	Elements           Molality       Moles

	K                 8.140e-01   8.140e-01
	S                 4.070e-01   4.070e-01

----------------------------Description of solution----------------------------

                                       pH  =   7.007      Charge balance
                                       pe  =   4.000      Adjusted to redox equilibrium
      Specific Conductance (µS/cm,  75°C)  = 141960
                          Density (g/cm³)  =   1.02700
                               Volume (L)  =   1.04277
                        Viscosity (mPa s)  =   0.41570
                        Activity of water  =   0.985
                 Ionic strength (mol/kgw)  =   1.221e+00
                       Mass of water (kg)  =   1.000e+00
                 Total alkalinity (eq/kg)  =   1.199e-15
                         Temperature (°C)  =  75.00
                  Electrical balance (eq)  =   2.143e-11
 Percent error, 100*(Cat-|An|)/(Cat+|An|)  =   0.00
                               Iterations  =  14
                         Gamma iterations  =   4
                      Osmotic coefficient  =   0.69367
                         Density of water  =   0.97484
                                  Total H  = 1.110124e+02
                                  Total O  = 5.713422e+01

----------------------------Distribution of species----------------------------

                                                    MacInnes  MacInnes
                                MacInnes       Log       Log       Log    mole V
   Species          Molality    Activity  Molality  Activity     Gamma   cm³/mol

   OH-             3.248e-06   2.055e-06    -5.488    -5.687    -0.199     -1.46
   H+              2.536e-07   9.837e-08    -6.596    -7.007    -0.411      0.00
   H2O             5.551e+01   9.849e-01     1.744    -0.007     0.000     18.48
K             8.140e-01
   K+              8.140e-01   3.793e-01    -0.089    -0.421    -0.332     10.87
S(6)          4.070e-01
   SO4-2           4.070e-01   3.455e-02    -0.390    -1.462    -1.071     19.92
   HSO4-           2.994e-06   1.442e-06    -5.524    -5.841    -0.317     42.76

------------------------------Saturation indices-------------------------------

  Phase               SI** log IAP   log K(348 K,   1 atm)

  Arcanite         -0.80     -2.30   -1.50  K2SO4
  H2O(g)           -0.43     -0.01    0.42  H2O
  Misenite        -44.84    -55.64  -10.81  K8H6(SO4)7

**For a gas, SI = log10(fugacity). Fugacity = pressure * phi / 1 atm.
  For ideal gases, phi = 1.

Reaction step 5.

Using solution 1.	
Using temperature 1.	
Using reaction 1.	

Reaction 1.	

	  1.000e+00 moles of the following reaction have been added:

	                 Relative
	Reactant            moles

	K2SO4                0.40700

	                 Relative
	Element             moles
	K                    0.81400
	O                    1.62800
	S                    0.40700

-----------------------------Solution composition------------------------------

	Elements           Molality       Moles

	K                 8.140e-01   8.140e-01
	S                 4.070e-01   4.070e-01

----------------------------Description of solution----------------------------

                                       pH  =   6.924      Charge balance
                                       pe  =   4.000      Adjusted to redox equilibrium
      Specific Conductance (µS/cm,  99°C)  = 174132
                          Density (g/cm³)  =   1.01094
                               Volume (L)  =   1.05934
                        Viscosity (mPa s)  =   0.31572
                        Activity of water  =   0.985
                 Ionic strength (mol/kgw)  =   1.221e+00
                       Mass of water (kg)  =   1.000e+00
                 Total alkalinity (eq/kg)  =   3.982e-15
                         Temperature (°C)  =  99.40
                  Electrical balance (eq)  =   3.918e-11
 Percent error, 100*(Cat-|An|)/(Cat+|An|)  =   0.00
                               Iterations  =  14
                         Gamma iterations  =   4
                      Osmotic coefficient  =   0.68277
                         Density of water  =   0.95878
                                  Total H  = 1.110124e+02
                                  Total O  = 5.713422e+01

----------------------------Distribution of species----------------------------

                                                    MacInnes  MacInnes
                                MacInnes       Log       Log       Log    mole V
   Species          Molality    Activity  Molality  Activity     Gamma   cm³/mol

   OH-             7.742e-06   4.673e-06    -5.111    -5.330    -0.219     -2.37
   H+              3.288e-07   1.191e-07    -6.483    -6.924    -0.441      0.00
   H2O             5.551e+01   9.851e-01     1.744    -0.007     0.000     18.79
K             8.140e-01
   K+              8.140e-01   3.659e-01    -0.089    -0.437    -0.347     11.17
S(6)          4.070e-01
   SO4-2           4.070e-01   3.061e-02    -0.390    -1.514    -1.124     17.81
   HSO4-           7.414e-06   3.405e-06    -5.130    -5.468    -0.338     42.66

------------------------------Saturation indices-------------------------------

  Phase               SI** log IAP   log K(372 K,   1 atm)

  Arcanite         -0.92     -2.39   -1.46  K2SO4
  H2O(g)           -0.02     -0.01    0.01  H2O
  Misenite        -44.83    -55.64  -10.81  K8H6(SO4)7

**For a gas, SI = log10(fugacity). Fugacity = pressure * phi / 1 atm.
  For ideal gases, phi = 1.

Reaction step 6.

Using solution 1.	
Using temperature 1.	
Using reaction 1.	

Reaction 1.	

	  1.000e+00 moles of the following reaction have been added:

	                 Relative
	Reactant            moles

	K2SO4                0.40700

	                 Relative
	Element             moles
	K                    0.81400
	O                    1.62800
	S                    0.40700

-----------------------------Solution composition------------------------------

	Elements           Molality       Moles

	K                 8.140e-01   8.140e-01
	S                 4.070e-01   4.070e-01

----------------------------Description of solution----------------------------

                                       pH  =   6.891      Charge balance
                                       pe  =   4.000      Adjusted to redox equilibrium
      Specific Conductance (µS/cm, 123°C)  = 202291
                          Density (g/cm³)  =   0.99281
                               Volume (L)  =   1.07867
                        Viscosity (mPa s)  =   0.25354
                        Activity of water  =   0.985
                 Ionic strength (mol/kgw)  =   1.221e+00
                       Mass of water (kg)  =   1.000e+00
                 Total alkalinity (eq/kg)  =   1.219e-14
                         Temperature (°C)  = 123.20
                           Pressure (atm)  =  2.17
                  Electrical balance (eq)  =   5.232e-11
 Percent error, 100*(Cat-|An|)/(Cat+|An|)  =   0.00
                               Iterations  =  14
                         Gamma iterations  =   4
                      Osmotic coefficient  =   0.66776
                         Density of water  =   0.94051
                                  Total H  = 1.110124e+02
                                  Total O  = 5.713422e+01

----------------------------Distribution of species----------------------------

                                                    MacInnes  MacInnes
                                MacInnes       Log       Log       Log    mole V
   Species          Molality    Activity  Molality  Activity     Gamma   cm³/mol

   OH-             1.646e-05   9.401e-06    -4.784    -5.027    -0.243     -3.92
   H+              3.815e-07   1.284e-07    -6.418    -6.891    -0.473      0.00
   H2O             5.551e+01   9.854e-01     1.744    -0.006     0.000     19.16
K             8.140e-01
   K+              8.140e-01   3.502e-01    -0.089    -0.456    -0.366     11.47
S(6)          4.070e-01
   SO4-2           4.070e-01   2.626e-02    -0.390    -1.581    -1.190     14.93
   HSO4-           1.608e-05   6.989e-06    -4.794    -5.156    -0.362     42.16

------------------------------Saturation indices-------------------------------

  Phase               SI** log IAP   log K(396 K,   2 atm)

  Arcanite         -1.00     -2.49   -1.49  K2SO4
  H2O(g)            0.32     -0.01   -0.33  H2O
  Misenite        -45.25    -56.06  -10.81  K8H6(SO4)7

**For a gas, SI = log10(fugacity). Fugacity = pressure * phi / 1 atm.
  For ideal gases, phi = 1.

Reaction step 7.

Using solution 1.	
Using temperature 1.	
Using reaction 1.	

Reaction 1.	

	  1.000e+00 moles of the following reaction have been added:

	                 Relative
	Reactant            moles

	K2SO4                0.40700

	                 Relative
	Element             moles
	K                    0.81400
	O                    1.62800
	S                    0.40700

-----------------------------Solution composition------------------------------

	Elements           Molality       Moles

	K                 8.140e-01   8.140e-01
	S                 4.070e-01   4.070e-01

----------------------------Description of solution----------------------------

                                       pH  =   6.900      Charge balance
                                       pe  =   4.000      Adjusted to redox equilibrium
      Specific Conductance (µS/cm, 149°C)  = 227999
                          Density (g/cm³)  =   0.97058
                               Volume (L)  =   1.10338
                        Viscosity (mPa s)  =   0.20853
                        Activity of water  =   0.986
                 Ionic strength (mol/kgw)  =   1.221e+00
                       Mass of water (kg)  =   1.000e+00
                 Total alkalinity (eq/kg)  =   3.311e-14
                         Temperature (°C)  = 148.90
                           Pressure (atm)  =  4.56
                  Electrical balance (eq)  =   3.458e-11
 Percent error, 100*(Cat-|An|)/(Cat+|An|)  =   0.00
                               Iterations  =  14
                         Gamma iterations  =   4
                      Osmotic coefficient  =   0.64770
                         Density of water  =   0.91803
                                  Total H  = 1.110124e+02
                                  Total O  = 5.713422e+01

----------------------------Distribution of species----------------------------

                                                    MacInnes  MacInnes
                                MacInnes       Log       Log       Log    mole V
   Species          Molality    Activity  Molality  Activity     Gamma   cm³/mol

   OH-             3.401e-05   1.811e-05    -4.468    -4.742    -0.274     -6.51
   H+              4.096e-07   1.258e-07    -6.388    -6.900    -0.513      0.00
   H2O             5.551e+01   9.859e-01     1.744    -0.006     0.000     19.62
K             8.140e-01
   K+              8.140e-01   3.313e-01    -0.089    -0.480    -0.390     11.86
S(6)          4.070e-01
   SO4-2           4.070e-01   2.153e-02    -0.390    -1.667    -1.276     10.92
   HSO4-           3.360e-05   1.362e-05    -4.474    -4.866    -0.392     41.14

------------------------------Saturation indices-------------------------------

  Phase               SI** log IAP   log K(422 K,   5 atm)

  Arcanite         -1.05     -2.63   -1.57  K2SO4
  H2O(g)            0.64     -0.01   -0.65  H2O
  Misenite        -46.10    -56.91  -10.81  K8H6(SO4)7

**For a gas, SI = log10(fugacity). Fugacity = pressure * phi / 1 atm.
  For ideal gases, phi = 1.

Reaction step 8.

Using solution 1.	
Using temperature 1.	
Using reaction 1.	

Reaction 1.	

	  1.000e+00 moles of the following reaction have been added:

	                 Relative
	Reactant            moles

	K2SO4                0.40700

	                 Relative
	Element             moles
	K                    0.81400
	O                    1.62800
	S                    0.40700

-----------------------------Solution composition------------------------------

	Elements           Molality       Moles

	K                 8.140e-01   8.140e-01
	S                 4.070e-01   4.070e-01

----------------------------Description of solution----------------------------

                                       pH  =   6.944      Charge balance
                                       pe  =   4.000      Adjusted to redox equilibrium
      Specific Conductance (µS/cm, 174°C)  = 247573
                          Density (g/cm³)  =   0.94648
                               Volume (L)  =   1.13148
                        Viscosity (mPa s)  =   0.17833
                        Activity of water  =   0.986
                 Ionic strength (mol/kgw)  =   1.221e+00
                       Mass of water (kg)  =   1.000e+00
                 Total alkalinity (eq/kg)  =   7.522e-14
                         Temperature (°C)  = 173.70
                           Pressure (atm)  =  8.55
                  Electrical balance (eq)  =  -7.394e-11
 Percent error, 100*(Cat-|An|)/(Cat+|An|)  =  -0.00
                               Iterations  =  14
                         Gamma iterations  =   4
                      Osmotic coefficient  =   0.62484
                         Density of water  =   0.89364
                                  Total H  = 1.110124e+02
                                  Total O  = 5.713422e+01

----------------------------Distribution of species----------------------------

                                                    MacInnes  MacInnes
                                MacInnes       Log       Log       Log    mole V
   Species          Molality    Activity  Molality  Activity     Gamma   cm³/mol

   OH-             6.331e-05   3.114e-05    -4.199    -4.507    -0.308    -10.33
   H+              4.105e-07   1.137e-07    -6.387    -6.944    -0.558      0.00
   H2O             5.551e+01   9.863e-01     1.744    -0.006     0.000     20.16
K             8.140e-01
   K+              8.140e-01   3.115e-01    -0.089    -0.506    -0.417     12.34
S(6)          4.070e-01
   SO4-2           4.069e-01   1.717e-02    -0.390    -1.765    -1.375      5.93
   HSO4-           6.290e-05   2.354e-05    -4.201    -4.628    -0.427     39.51

------------------------------Saturation indices-------------------------------

  Phase               SI** log IAP   log K(446 K,   9 atm)

  Arcanite         -1.07     -2.78   -1.71  K2SO4
  H2O(g)            0.91     -0.01   -0.91  H2O
  Misenite        -47.26    -58.07  -10.82  K8H6(SO4)7

**For a gas, SI = log10(fugacity). Fugacity = pressure * phi / 1 atm.
  For ideal gases, phi = 1.

Reaction step 9.

Using solution 1.	
Using temperature 1.	
Using reaction 1.	

Reaction 1.	

	  1.000e+00 moles of the following reaction have been added:

	                 Relative
	Reactant            moles

	K2SO4                0.40700

	                 Relative
	Element             moles
	K                    0.81400
	O                    1.62800
	S                    0.40700

-----------------------------Solution composition------------------------------

	Elements           Molality       Moles

	K                 8.140e-01   8.140e-01
	S                 4.070e-01   4.070e-01

----------------------------Description of solution----------------------------

                                       pH  =   7.012      Charge balance
                                       pe  =   4.000      Adjusted to redox equilibrium
      Specific Conductance (µS/cm, 198°C)  = 261388
                          Density (g/cm³)  =   0.92068
                               Volume (L)  =   1.16319
                        Viscosity (mPa s)  =   0.15768
                        Activity of water  =   0.987
                 Ionic strength (mol/kgw)  =   1.221e+00
                       Mass of water (kg)  =   1.000e+00
                 Total alkalinity (eq/kg)  =   1.456e-13
                         Temperature (°C)  = 197.60
                           Pressure (atm)  = 14.62
                  Electrical balance (eq)  =  -3.645e-10
 Percent error, 100*(Cat-|An|)/(Cat+|An|)  =  -0.00
                               Iterations  =  14
                         Gamma iterations  =   4
                      Osmotic coefficient  =   0.59916
                         Density of water  =   0.86746
                                  Total H  = 1.110124e+02
                                  Total O  = 5.713422e+01

----------------------------Distribution of species----------------------------

                                                    MacInnes  MacInnes
                                MacInnes       Log       Log       Log    mole V
   Species          Molality    Activity  Molality  Activity     Gamma   cm³/mol

   OH-             1.075e-04   4.836e-05    -3.968    -4.316    -0.347    -15.90
   H+              3.941e-07   9.718e-08    -6.404    -7.012    -0.608      0.00
   H2O             5.551e+01   9.869e-01     1.744    -0.006     0.000     20.77
K             8.140e-01
   K+              8.140e-01   2.911e-01    -0.089    -0.536    -0.447     12.98
S(6)          4.070e-01
   SO4-2           4.069e-01   1.328e-02    -0.391    -1.877    -1.486     -0.44
   HSO4-           1.071e-04   3.667e-05    -3.970    -4.436    -0.466     37.05

------------------------------Saturation indices-------------------------------

  Phase               SI** log IAP   log K(470 K,  15 atm)

  Arcanite         -1.06     -2.95   -1.89  K2SO4
  H2O(g)            1.13     -0.01   -1.14  H2O
  Misenite        -48.68    -59.50  -10.82  K8H6(SO4)7

**For a gas, SI = log10(fugacity). Fugacity = pressure * phi / 1 atm.
  For ideal gases, phi = 1.

------------------
End of simulation.
------------------

------------------------------------
Reading input data for simulation 6.
------------------------------------

