WARNING: Database file from DATABASE keyword is used; command line argument ignored.
   Input file: variable_cell_diffusion
  Output file: variable_cell_diffusion.out
Database file: ../database/wateq4f.dat

------------------
Reading data base.
------------------

	SOLUTION_MASTER_SPECIES
	SOLUTION_SPECIES
	PHASES
	EXCHANGE_MASTER_SPECIES
	EXCHANGE_SPECIES
	SURFACE_MASTER_SPECIES
	SURFACE_SPECIES
	RATES
	END
------------------------------------
Reading input data for simulation 1.
------------------------------------

	DATABASE ../database/wateq4f.dat
	SOLUTION 1-10
	PRINT
	 reset false
	SOLUTION 0   Fixed NaCl conc (first type boundary cond) at inlet
	  Na  24
	  Cl  24
	TRANSPORT            # Diffuse NaCl solution from column end
	shifts 1
	 cells 10
	 lengths 1 3*0.25 0.05 4*1.75 1
	flow_direction         diffusion
	boundary_conditions    constant  closed
	diffusion_coefficient  0.3e-9    # m^2/s
	time_step              500 year
	 USER_GRAPH 1 Example 12
WARNING: No dispersivities were read; disp = 0 assumed.
	-headings Cl Analytical MCD
	-chart_title "Diffusion of Cl"
	-axis_titles "Distance / m" "mmol / kgw"
	-axis_scale y_axis 0 25
	-axis_scale x_axis 0 10
	-initial_solutions true
	-plot_concentration_vs x
	  1 if step_no > 0 then 10 
	  2 if cell_no > 1 then end
	  3 PLOT_XY 0, 24, symbol = Plus 
	  4 PLOT_XY 0, 24 * 1, color = Blue, symbol = Circle, line_width = 0
	  6 end
	  10 put(total_time , 2)
	  12 x = DIST
	  20 if get(1, cell_no) = 0 then dx = 2 * (dist - get(1)) : put(dx, 1, cell_no) : put(dx + get(1), 1)
	  30 PLOT_XY x, TOT("Cl")*1000, symbol = Plus
	  80 z = x / (2 * SQRT(3e-10 * SIM_TIME / 1.0))
	  90 GOSUB 2000
	  100 PLOT_XY x, 24 * erfc, color = Blue, symbol = Circle symbol_size = 8 line_width = 0
	  140 END
	  2000 REM calculate erfc...
	  2010 DATA 0.254829592, -0.284496736, 1.421413741, -1.453152027, 1.061405429, 0.3275911
	  2020 READ a1, a2, a3, a4, a5, a6
	  2050 b = 1 / (1 + a6 * z)
	  2060 erfc = b * (a1 + b * (a2 + b * (a3 + b * (a4 + b * a5)))) * EXP(-(z * z))
	  2080 RETURN
	 -end
	END
	USER_GRAPH
	 -active false
	SOLUTION 1
	SOLUTION 2-5
	 water 0.25
	SOLUTION 6
	   water 0.05
	SOLUTION 6-9
	 water 1.75
	SOLUTION 10
	END
	TRANSPORT
	multi_d true 1e-9 0.3 0.05 1.0 
	USER_GRAPH 1
	-active true
	-connect_simulations false
	-initial_solutions false
	 10 plot_xy dist, tot("Cl") * 1e3
	 -end
	 END
------------------------------
End of Run after 1.44 Seconds.
------------------------------

