   Input file: Vm_BaCl2_sol
  Output file: Vm_BaCl2_sol.out
Database file: ../database/phreeqc.dat

------------------
Reading data base.
------------------

	SOLUTION_MASTER_SPECIES
	SOLUTION_SPECIES
	PHASES
	EXCHANGE_MASTER_SPECIES
	EXCHANGE_SPECIES
	SURFACE_MASTER_SPECIES
	SURFACE_SPECIES
	RATES
	END
------------------------------------
Reading input data for simulation 1.
------------------------------------

	DATABASE ../database/phreeqc.dat
	SOLUTION 1
	 pH 7 charge
	END
-------------------------------------------
Beginning of initial solution calculations.
-------------------------------------------

Initial solution 1.	

-----------------------------Solution composition------------------------------

	Elements           Molality       Moles

	Pure water     

----------------------------Description of solution----------------------------

                                       pH  =   6.997      Charge balance
                                       pe  =   4.000    
       Specific Conductance (uS/cm, 25 oC) = 0
                          Density (g/cm3)  =   0.99704
                               Volume (L)  =   1.00297
                        Activity of water  =   1.000
                           Ionic strength  =   1.006e-07
                       Mass of water (kg)  =   1.000e+00
                 Total alkalinity (eq/kg)  =   3.040e-17
                    Total carbon (mol/kg)  =   0.000e+00
                       Total CO2 (mol/kg)  =   0.000e+00
                      Temperature (deg C)  =  25.00
                  Electrical balance (eq)  =  -3.040e-17
 Percent error, 100*(Cat-|An|)/(Cat+|An|)  =  -0.00
                               Iterations  =   2
                                  Total H  = 1.110124e+02
                                  Total O  = 5.550622e+01

----------------------------Distribution of species----------------------------

                                               Log       Log       Log    mole V
   Species          Molality    Activity  Molality  Activity     Gamma   cm3/mol

   OH-             1.006e-07   1.006e-07    -6.997    -6.997    -0.000     -4.14
   H+              1.006e-07   1.006e-07    -6.997    -6.997    -0.000      0.00
   H2O             5.551e+01   1.000e+00     1.744    -0.000     0.000     18.07
H(0)          1.433e-25
   H2              7.166e-26   7.166e-26   -25.145   -25.145     0.000     28.61
O(0)          0.000e+00
   O2              0.000e+00   0.000e+00   -42.090   -42.090     0.000     30.40

------------------------------Saturation indices-------------------------------

	Phase               SI   log IAP   log K(298 K,   1 atm)

	H2(g)           -22.04    -25.14   -3.10  H2
	H2O(g)           -1.50     -0.00    1.50  H2O
	O2(g)           -39.20    -42.09   -2.89  O2


------------------
End of simulation.
------------------

------------------------------------
Reading input data for simulation 2.
------------------------------------

	USE solution 1
	REACTION_TEMPERATURE
	 15.000000
	REACTION_PRESSURE
	 1.000000
	REACTION
	 BaCl2 1
	0 0.009300 0.029500 0.050000 0.050100 0.072600 0.099800 0.100000 0.149400 0.200000 0.300400 0.406400 0.500000 0.587800 0.700000 0.992100 1.000000 1.200000 1.224300 1.500000 1.585800
	USER_GRAPH
	 -headings 15.oC
	-axis_titles "BaCl2 / (mol/kg H2O)" "BaCl2 molar volume / (cm3/mol)"
	10 data 0, 20.741910, 22.782720, 23.271951, 23.109905, 23.619726, 23.751890, 25.234145, 24.332228, 24.681781, 25.436091, 25.958348, 26.972194, 26.983782, 28.857845, 28.547434, 29.563096, 30.198633, 29.441347, 31.763106, 30.622114,
	20 dim d(21)
	30 read d(1), d(2), d(3), d(4), d(5), d(6), d(7), d(8), d(9), d(10), d(11), d(12), d(13), d(14), d(15), d(16), d(17), d(18), d(19), d(20), d(21), 
	40 if step_no = 1 then put(rho, 10)
	50 if step_no > 1 then Vmol = (1e3 + tot("Ba") * 208.246) / (tot("Ba") * rho) - 1e3 / (tot("Ba") * get(10))
	60 if step_no = 1 then dif = 0 else dif = Vmol - d(step_no)
	62 if step_no = 1 then goto 90
	70 plot_xy tot("Ba"), d(step_no), line_w = 0, color = Yellow #aph_x tot("Ba") # dif, str$(tc), str$(pressure), str$(step_no + get(1))
	80 plot_xy tot("Ba"), Vmol, symbol = None, color = Yellow #step_no = 264 then put(step_no + get(1), 1)
	90 end
	END
-----------------------------------------
Beginning of batch-reaction calculations.
-----------------------------------------

Reaction step 1.

Using solution 1.	
Using temperature 1.	
Using pressure 1.	
Using reaction 1.	

Reaction 1.	

	  0.000e+00 moles of the following reaction have been added:

	                 Relative
	Reactant            moles

	BaCl2                1.00000

	                 Relative
	Element             moles
	Ba                   1.00000
	Cl                   2.00000

-----------------------------Solution composition------------------------------

	Elements           Molality       Moles

	Pure water     

----------------------------Description of solution----------------------------

                                       pH  =   7.172      Charge balance
                                       pe  =  -0.315      Adjusted to redox equilibrium
       Specific Conductance (uS/cm, 15 oC) = 0
                          Density (g/cm3)  =   0.99910
                               Volume (L)  =   1.00090
                        Activity of water  =   1.000
                           Ionic strength  =   6.737e-08
                       Mass of water (kg)  =   1.000e+00
                 Total alkalinity (eq/kg)  =   3.040e-17
                    Total carbon (mol/kg)  =   0.000e+00
                       Total CO2 (mol/kg)  =   0.000e+00
                      Temperature (deg C)  =  15.00
                  Electrical balance (eq)  =  -3.040e-17
 Percent error, 100*(Cat-|An|)/(Cat+|An|)  =  -0.00
                               Iterations  =  31
                                  Total H  = 1.110124e+02
                                  Total O  = 5.550622e+01

----------------------------Distribution of species----------------------------

                                               Log       Log       Log    mole V
   Species          Molality    Activity  Molality  Activity     Gamma   cm3/mol

   OH-             6.737e-08   6.735e-08    -7.172    -7.172    -0.000     -4.65
   H+              6.737e-08   6.735e-08    -7.172    -7.172    -0.000      0.00
   H2O             5.551e+01   1.000e+00     1.744    -0.000     0.000     18.03
H(0)          3.040e-17
   H2              1.520e-17   1.520e-17   -16.818   -16.818     0.000     28.62
O(0)          0.000e+00
   O2              0.000e+00   0.000e+00   -62.083   -62.083     0.000     29.51

------------------------------Saturation indices-------------------------------

	Phase               SI   log IAP   log K(288 K,   1 atm)

	H2(g)           -13.75    -16.82   -3.07  H2
	H2O(g)           -1.77     -0.00    1.77  H2O
	O2(g)           -59.27    -62.08   -2.81  O2


Reaction step 2.

Using solution 1.	
Using temperature 1.	
Using pressure 1.	
Using reaction 1.	

Reaction 1.	

	  9.300e-03 moles of the following reaction have been added:

	                 Relative
	Reactant            moles

	BaCl2                1.00000

	                 Relative
	Element             moles
	Ba                   1.00000
	Cl                   2.00000

-----------------------------Solution composition------------------------------

	Elements           Molality       Moles

	Ba                9.300e-03   9.300e-03
	Cl                1.860e-02   1.860e-02

----------------------------Description of solution----------------------------

                                       pH  =   7.157      Charge balance
                                       pe  =  -0.291      Adjusted to redox equilibrium
       Specific Conductance (uS/cm, 15 oC) = 1720
                          Density (g/cm3)  =   1.00082
                               Volume (L)  =   1.00111
                        Activity of water  =   1.000
                           Ionic strength  =   2.790e-02
                       Mass of water (kg)  =   1.000e+00
                 Total alkalinity (eq/kg)  =   7.240e-17
                    Total carbon (mol/kg)  =   0.000e+00
                       Total CO2 (mol/kg)  =   0.000e+00
                      Temperature (deg C)  =  15.00
                  Electrical balance (eq)  =   3.477e-11
 Percent error, 100*(Cat-|An|)/(Cat+|An|)  =   0.00
                               Iterations  =   8
                                  Total H  = 1.110124e+02
                                  Total O  = 5.550622e+01

----------------------------Distribution of species----------------------------

                                               Log       Log       Log    mole V
   Species          Molality    Activity  Molality  Activity     Gamma   cm3/mol

   H+              7.932e-08   6.969e-08    -7.101    -7.157    -0.056      0.00
   OH-             7.650e-08   6.506e-08    -7.116    -7.187    -0.070     -4.48
   H2O             5.551e+01   9.995e-01     1.744    -0.000     0.000     18.03
Ba            9.300e-03
   Ba+2            9.300e-03   4.985e-03    -2.032    -2.302    -0.271    -13.03
   BaOH+           2.819e-09   2.422e-09    -8.550    -8.616    -0.066     (0)  
Cl            1.860e-02
   Cl-             1.860e-02   1.585e-02    -1.730    -1.800    -0.069     17.79
H(0)          2.898e-17
   H2              1.449e-17   1.458e-17   -16.839   -16.836     0.003     28.62
O(0)          0.000e+00
   O2              0.000e+00   0.000e+00   -62.050   -62.047     0.003     29.51

------------------------------Saturation indices-------------------------------

	Phase               SI   log IAP   log K(288 K,   1 atm)

	H2(g)           -13.76    -16.84   -3.07  H2
	H2O(g)           -1.77     -0.00    1.77  H2O
	O2(g)           -59.24    -62.05   -2.81  O2


Reaction step 3.

Using solution 1.	
Using temperature 1.	
Using pressure 1.	
Using reaction 1.	

Reaction 1.	

	  2.950e-02 moles of the following reaction have been added:

	                 Relative
	Reactant            moles

	BaCl2                1.00000

	                 Relative
	Element             moles
	Ba                   1.00000
	Cl                   2.00000

-----------------------------Solution composition------------------------------

	Elements           Molality       Moles

	Ba                2.950e-02   2.950e-02
	Cl                5.900e-02   5.900e-02

----------------------------Description of solution----------------------------

                                       pH  =   7.139      Charge balance
                                       pe  =  -0.311      Adjusted to redox equilibrium
       Specific Conductance (uS/cm, 15 oC) = 4988
                          Density (g/cm3)  =   1.00455
                               Volume (L)  =   1.00158
                        Activity of water  =   0.998
                           Ionic strength  =   8.850e-02
                       Mass of water (kg)  =   1.000e+00
                 Total alkalinity (eq/kg)  =   3.382e-17
                    Total carbon (mol/kg)  =   0.000e+00
                       Total CO2 (mol/kg)  =   0.000e+00
                      Temperature (deg C)  =  15.00
                  Electrical balance (eq)  =   1.665e-14
 Percent error, 100*(Cat-|An|)/(Cat+|An|)  =   0.00
                               Iterations  =   9
                                  Total H  = 1.110124e+02
                                  Total O  = 5.550622e+01

----------------------------Distribution of species----------------------------

                                               Log       Log       Log    mole V
   Species          Molality    Activity  Molality  Activity     Gamma   cm3/mol

   H+              8.724e-08   7.263e-08    -7.059    -7.139    -0.080      0.00
   OH-             8.059e-08   6.237e-08    -7.094    -7.205    -0.111     -4.30
   H2O             5.551e+01   9.985e-01     1.744    -0.001     0.000     18.03
Ba            2.950e-02
   Ba+2            2.950e-02   1.131e-02    -1.530    -1.946    -0.416    -12.74
   BaOH+           6.641e-09   5.270e-09    -8.178    -8.278    -0.100     (0)  
Cl            5.900e-02
   Cl-             5.900e-02   4.592e-02    -1.229    -1.338    -0.109     17.91
H(0)          3.390e-17
   H2              1.695e-17   1.730e-17   -16.771   -16.762     0.009     28.62
O(0)          0.000e+00
   O2              0.000e+00   0.000e+00   -62.205   -62.196     0.009     29.51

------------------------------Saturation indices-------------------------------

	Phase               SI   log IAP   log K(288 K,   1 atm)

	H2(g)           -13.69    -16.76   -3.07  H2
	H2O(g)           -1.77     -0.00    1.77  H2O
	O2(g)           -59.38    -62.20   -2.81  O2


Reaction step 4.

Using solution 1.	
Using temperature 1.	
Using pressure 1.	
Using reaction 1.	

Reaction 1.	

	  5.000e-02 moles of the following reaction have been added:

	                 Relative
	Reactant            moles

	BaCl2                1.00000

	                 Relative
	Element             moles
	Ba                   1.00000
	Cl                   2.00000

-----------------------------Solution composition------------------------------

	Elements           Molality       Moles

	Ba                5.000e-02   5.000e-02
	Cl                1.000e-01   1.000e-01

----------------------------Description of solution----------------------------

                                       pH  =   7.126      Charge balance
                                       pe  =  -0.230      Adjusted to redox equilibrium
       Specific Conductance (uS/cm, 15 oC) = 8063
                          Density (g/cm3)  =   1.00832
                               Volume (L)  =   1.00207
                        Activity of water  =   0.997
                           Ionic strength  =   1.500e-01
                       Mass of water (kg)  =   1.000e+00
                 Total alkalinity (eq/kg)  =   2.423e-17
                    Total carbon (mol/kg)  =   0.000e+00
                       Total CO2 (mol/kg)  =   0.000e+00
                      Temperature (deg C)  =  15.00
                  Electrical balance (eq)  =   1.835e-14
 Percent error, 100*(Cat-|An|)/(Cat+|An|)  =   0.00
                               Iterations  =  16
                                  Total H  = 1.110124e+02
                                  Total O  = 5.550622e+01

----------------------------Distribution of species----------------------------

                                               Log       Log       Log    mole V
   Species          Molality    Activity  Molality  Activity     Gamma   cm3/mol

   H+              9.211e-08   7.473e-08    -7.036    -7.126    -0.091      0.00
   OH-             8.256e-08   6.055e-08    -7.083    -7.218    -0.135     -4.16
   H2O             5.551e+01   9.974e-01     1.744    -0.001     0.000     18.03
Ba            5.000e-02
   Ba+2            5.000e-02   1.607e-02    -1.301    -1.794    -0.493    -12.56
   BaOH+           9.558e-09   7.267e-09    -8.020    -8.139    -0.119     (0)  
Cl            1.000e-01
   Cl-             1.000e-01   7.403e-02    -1.000    -1.131    -0.131     17.98
H(0)          2.446e-17
   H2              1.223e-17   1.266e-17   -16.913   -16.898     0.015     28.62
O(0)          0.000e+00
   O2              0.000e+00   0.000e+00   -61.941   -61.926     0.015     29.51

------------------------------Saturation indices-------------------------------

	Phase               SI   log IAP   log K(288 K,   1 atm)

	H2(g)           -13.82    -16.90   -3.07  H2
	H2O(g)           -1.77     -0.00    1.77  H2O
	O2(g)           -59.11    -61.93   -2.81  O2


Reaction step 5.

Using solution 1.	
Using temperature 1.	
Using pressure 1.	
Using reaction 1.	

Reaction 1.	

	  5.010e-02 moles of the following reaction have been added:

	                 Relative
	Reactant            moles

	BaCl2                1.00000

	                 Relative
	Element             moles
	Ba                   1.00000
	Cl                   2.00000

-----------------------------Solution composition------------------------------

	Elements           Molality       Moles

	Ba                5.010e-02   5.010e-02
	Cl                1.002e-01   1.002e-01

----------------------------Description of solution----------------------------

                                       pH  =   7.126      Charge balance
                                       pe  =  -0.291      Adjusted to redox equilibrium
       Specific Conductance (uS/cm, 15 oC) = 8077
                          Density (g/cm3)  =   1.00834
                               Volume (L)  =   1.00207
                        Activity of water  =   0.997
                           Ionic strength  =   1.503e-01
                       Mass of water (kg)  =   1.000e+00
                 Total alkalinity (eq/kg)  =   3.230e-17
                    Total carbon (mol/kg)  =   0.000e+00
                       Total CO2 (mol/kg)  =   0.000e+00
                      Temperature (deg C)  =  15.00
                  Electrical balance (eq)  =   5.329e-13
 Percent error, 100*(Cat-|An|)/(Cat+|An|)  =   0.00
                               Iterations  =  11
                                  Total H  = 1.110124e+02
                                  Total O  = 5.550622e+01

----------------------------Distribution of species----------------------------

                                               Log       Log       Log    mole V
   Species          Molality    Activity  Molality  Activity     Gamma   cm3/mol

   H+              9.213e-08   7.474e-08    -7.036    -7.126    -0.091      0.00
   OH-             8.256e-08   6.054e-08    -7.083    -7.218    -0.135     -4.16
   H2O             5.551e+01   9.974e-01     1.744    -0.001     0.000     18.03
Ba            5.010e-02
   Ba+2            5.010e-02   1.609e-02    -1.300    -1.793    -0.493    -12.56
   BaOH+           9.571e-09   7.276e-09    -8.019    -8.138    -0.119     (0)  
Cl            1.002e-01
   Cl-             1.002e-01   7.417e-02    -0.999    -1.130    -0.131     17.98
H(0)          3.232e-17
   H2              1.616e-17   1.673e-17   -16.792   -16.777     0.015     28.62
O(0)          0.000e+00
   O2              0.000e+00   0.000e+00   -62.183   -62.168     0.015     29.51

------------------------------Saturation indices-------------------------------

	Phase               SI   log IAP   log K(288 K,   1 atm)

	H2(g)           -13.70    -16.78   -3.07  H2
	H2O(g)           -1.77     -0.00    1.77  H2O
	O2(g)           -59.36    -62.17   -2.81  O2


Reaction step 6.

Using solution 1.	
Using temperature 1.	
Using pressure 1.	
Using reaction 1.	

Reaction 1.	

	  7.260e-02 moles of the following reaction have been added:

	                 Relative
	Reactant            moles

	BaCl2                1.00000

	                 Relative
	Element             moles
	Ba                   1.00000
	Cl                   2.00000

-----------------------------Solution composition------------------------------

	Elements           Molality       Moles

	Ba                7.260e-02   7.260e-02
	Cl                1.452e-01   1.452e-01

----------------------------Description of solution----------------------------

                                       pH  =   7.116      Charge balance
                                       pe  =  -0.329      Adjusted to redox equilibrium
       Specific Conductance (uS/cm, 15 oC) = 11310
                          Density (g/cm3)  =   1.01246
                               Volume (L)  =   1.00262
                        Activity of water  =   0.996
                           Ionic strength  =   2.178e-01
                       Mass of water (kg)  =   1.000e+00
                 Total alkalinity (eq/kg)  =   4.139e-17
                    Total carbon (mol/kg)  =   0.000e+00
                       Total CO2 (mol/kg)  =   0.000e+00
                      Temperature (deg C)  =  15.00
                  Electrical balance (eq)  =   1.926e-11
 Percent error, 100*(Cat-|An|)/(Cat+|An|)  =   0.00
                               Iterations  =  23
                                  Total H  = 1.110124e+02
                                  Total O  = 5.550622e+01

----------------------------Distribution of species----------------------------

                                               Log       Log       Log    mole V
   Species          Molality    Activity  Molality  Activity     Gamma   cm3/mol

   H+              9.614e-08   7.660e-08    -7.017    -7.116    -0.099      0.00
   OH-             8.385e-08   5.900e-08    -7.077    -7.229    -0.153     -4.01
   H2O             5.551e+01   9.963e-01     1.744    -0.002     0.000     18.03
Ba            7.260e-02
   Ba+2            7.260e-02   2.054e-02    -1.139    -1.687    -0.548    -12.40
   BaOH+           1.229e-08   9.053e-09    -7.910    -8.043    -0.133     (0)  
Cl            1.452e-01
   Cl-             1.452e-01   1.035e-01    -0.838    -0.985    -0.147     18.05
H(0)          3.987e-17
   H2              1.994e-17   2.096e-17   -16.700   -16.679     0.022     28.62
O(0)          0.000e+00
   O2              0.000e+00   0.000e+00   -62.387   -62.365     0.022     29.51

------------------------------Saturation indices-------------------------------

	Phase               SI   log IAP   log K(288 K,   1 atm)

	H2(g)           -13.61    -16.68   -3.07  H2
	H2O(g)           -1.77     -0.00    1.77  H2O
	O2(g)           -59.55    -62.37   -2.81  O2


Reaction step 7.

Using solution 1.	
Using temperature 1.	
Using pressure 1.	
Using reaction 1.	

Reaction 1.	

	  9.980e-02 moles of the following reaction have been added:

	                 Relative
	Reactant            moles

	BaCl2                1.00000

	                 Relative
	Element             moles
	Ba                   1.00000
	Cl                   2.00000

-----------------------------Solution composition------------------------------

	Elements           Molality       Moles

	Ba                9.980e-02   9.980e-02
	Cl                1.996e-01   1.996e-01

----------------------------Description of solution----------------------------

                                       pH  =   7.105      Charge balance
                                       pe  =  -0.312      Adjusted to redox equilibrium
       Specific Conductance (uS/cm, 15 oC) = 15101
                          Density (g/cm3)  =   1.01743
                               Volume (L)  =   1.00330
                        Activity of water  =   0.995
                           Ionic strength  =   2.994e-01
                       Mass of water (kg)  =   1.000e+00
                 Total alkalinity (eq/kg)  =   6.577e-17
                    Total carbon (mol/kg)  =   0.000e+00
                       Total CO2 (mol/kg)  =   0.000e+00
                      Temperature (deg C)  =  15.00
                  Electrical balance (eq)  =   4.505e-10
 Percent error, 100*(Cat-|An|)/(Cat+|An|)  =   0.00
                               Iterations  =   9
                                  Total H  = 1.110124e+02
                                  Total O  = 5.550622e+01

----------------------------Distribution of species----------------------------

                                               Log       Log       Log    mole V
   Species          Molality    Activity  Molality  Activity     Gamma   cm3/mol

   H+              1.000e-07   7.851e-08    -7.000    -7.105    -0.105      0.00
   OH-             8.480e-08   5.749e-08    -7.072    -7.240    -0.169     -3.86
   H2O             5.551e+01   9.949e-01     1.744    -0.002     0.000     18.03
Ba            9.980e-02
   Ba+2            9.980e-02   2.540e-02    -1.001    -1.595    -0.594    -12.25
   BaOH+           1.523e-08   1.091e-08    -7.817    -7.962    -0.145     (0)  
Cl            1.996e-01
   Cl-             1.996e-01   1.377e-01    -0.700    -0.861    -0.161     18.12
H(0)          3.791e-17
   H2              1.895e-17   2.031e-17   -16.722   -16.692     0.030     28.62
O(0)          0.000e+00
   O2              0.000e+00   0.000e+00   -62.369   -62.339     0.030     29.51

------------------------------Saturation indices-------------------------------

	Phase               SI   log IAP   log K(288 K,   1 atm)

	H2(g)           -13.62    -16.69   -3.07  H2
	H2O(g)           -1.77     -0.00    1.77  H2O
	O2(g)           -59.53    -62.34   -2.81  O2


Reaction step 8.

Using solution 1.	
Using temperature 1.	
Using pressure 1.	
Using reaction 1.	

Reaction 1.	

	  1.000e-01 moles of the following reaction have been added:

	                 Relative
	Reactant            moles

	BaCl2                1.00000

	                 Relative
	Element             moles
	Ba                   1.00000
	Cl                   2.00000

-----------------------------Solution composition------------------------------

	Elements           Molality       Moles

	Ba                1.000e-01   1.000e-01
	Cl                2.000e-01   2.000e-01

----------------------------Description of solution----------------------------

                                       pH  =   7.105      Charge balance
                                       pe  =  -0.256      Adjusted to redox equilibrium
       Specific Conductance (uS/cm, 15 oC) = 15128
                          Density (g/cm3)  =   1.01747
                               Volume (L)  =   1.00330
                        Activity of water  =   0.995
                           Ionic strength  =   3.000e-01
                       Mass of water (kg)  =   1.000e+00
                 Total alkalinity (eq/kg)  =   2.291e-17
                    Total carbon (mol/kg)  =   0.000e+00
                       Total CO2 (mol/kg)  =   0.000e+00
                      Temperature (deg C)  =  15.00
                  Electrical balance (eq)  =   3.726e-13
 Percent error, 100*(Cat-|An|)/(Cat+|An|)  =   0.00
                               Iterations  =  33
                                  Total H  = 1.110124e+02
                                  Total O  = 5.550622e+01

----------------------------Distribution of species----------------------------

                                               Log       Log       Log    mole V
   Species          Molality    Activity  Molality  Activity     Gamma   cm3/mol

   H+              1.001e-07   7.852e-08    -7.000    -7.105    -0.105      0.00
   OH-             8.480e-08   5.748e-08    -7.072    -7.241    -0.169     -3.86
   H2O             5.551e+01   9.949e-01     1.744    -0.002     0.000     18.03
Ba            1.000e-01
   Ba+2            1.000e-01   2.544e-02    -1.000    -1.595    -0.595    -12.25
   BaOH+           1.525e-08   1.092e-08    -7.817    -7.962    -0.145     (0)  
Cl            2.000e-01
   Cl-             2.000e-01   1.379e-01    -0.699    -0.860    -0.161     18.12
H(0)          2.942e-17
   H2              1.471e-17   1.576e-17   -16.832   -16.802     0.030     28.62
O(0)          0.000e+00
   O2              0.000e+00   0.000e+00   -62.149   -62.119     0.030     29.51

------------------------------Saturation indices-------------------------------

	Phase               SI   log IAP   log K(288 K,   1 atm)

	H2(g)           -13.73    -16.80   -3.07  H2
	H2O(g)           -1.77     -0.00    1.77  H2O
	O2(g)           -59.31    -62.12   -2.81  O2


Reaction step 9.

Using solution 1.	
Using temperature 1.	
Using pressure 1.	
Using reaction 1.	

Reaction 1.	

	  1.494e-01 moles of the following reaction have been added:

	                 Relative
	Reactant            moles

	BaCl2                1.00000

	                 Relative
	Element             moles
	Ba                   1.00000
	Cl                   2.00000

-----------------------------Solution composition------------------------------

	Elements           Molality       Moles

	Ba                1.494e-01   1.494e-01
	Cl                2.988e-01   2.988e-01

----------------------------Description of solution----------------------------

                                       pH  =   7.089      Charge balance
                                       pe  =  -0.462      Adjusted to redox equilibrium
       Specific Conductance (uS/cm, 15 oC) = 21433
                          Density (g/cm3)  =   1.02644
                               Volume (L)  =   1.00455
                        Activity of water  =   0.992
                           Ionic strength  =   4.482e-01
                       Mass of water (kg)  =   1.000e+00
                 Total alkalinity (eq/kg)  =   9.111e-18
                    Total carbon (mol/kg)  =   0.000e+00
                       Total CO2 (mol/kg)  =   0.000e+00
                      Temperature (deg C)  =  15.00
                  Electrical balance (eq)  =   3.659e-11
 Percent error, 100*(Cat-|An|)/(Cat+|An|)  =   0.00
                               Iterations  =  21
                                  Total H  = 1.110124e+02
                                  Total O  = 5.550622e+01

----------------------------Distribution of species----------------------------

                                               Log       Log       Log    mole V
   Species          Molality    Activity  Molality  Activity     Gamma   cm3/mol

   H+              1.057e-07   8.147e-08    -6.976    -7.089    -0.113      0.00
   OH-             8.563e-08   5.526e-08    -7.067    -7.258    -0.190     -3.59
   H2O             5.551e+01   9.924e-01     1.744    -0.003     0.000     18.03
Ba            1.494e-01
   Ba+2            1.494e-01   3.362e-02    -0.826    -1.473    -0.648    -12.01
   BaOH+           2.007e-08   1.388e-08    -7.697    -7.858    -0.160     (0)  
Cl            2.988e-01
   Cl-             2.988e-01   1.976e-01    -0.525    -0.704    -0.180     18.23
H(0)          7.901e-17
   H2              3.951e-17   4.380e-17   -16.403   -16.359     0.045     28.62
O(0)          0.000e+00
   O2              0.000e+00   0.000e+00   -63.054   -63.009     0.045     29.51

------------------------------Saturation indices-------------------------------

	Phase               SI   log IAP   log K(288 K,   1 atm)

	H2(g)           -13.29    -16.36   -3.07  H2
	H2O(g)           -1.77     -0.00    1.77  H2O
	O2(g)           -60.20    -63.01   -2.81  O2


Reaction step 10.

Using solution 1.	
Using temperature 1.	
Using pressure 1.	
Using reaction 1.	

Reaction 1.	

	  2.000e-01 moles of the following reaction have been added:

	                 Relative
	Reactant            moles

	BaCl2                1.00000

	                 Relative
	Element             moles
	Ba                   1.00000
	Cl                   2.00000

-----------------------------Solution composition------------------------------

	Elements           Molality       Moles

	Ba                2.000e-01   2.000e-01
	Cl                4.000e-01   4.000e-01

----------------------------Description of solution----------------------------

                                       pH  =   7.075      Charge balance
                                       pe  =  -0.319      Adjusted to redox equilibrium
       Specific Conductance (uS/cm, 15 oC) = 27200
                          Density (g/cm3)  =   1.03557
                               Volume (L)  =   1.00587
                        Activity of water  =   0.990
                           Ionic strength  =   6.000e-01
                       Mass of water (kg)  =   1.000e+00
                 Total alkalinity (eq/kg)  =   1.057e-16
                    Total carbon (mol/kg)  =   0.000e+00
                       Total CO2 (mol/kg)  =   0.000e+00
                      Temperature (deg C)  =  15.00
                  Electrical balance (eq)  =   1.002e-09
 Percent error, 100*(Cat-|An|)/(Cat+|An|)  =   0.00
                               Iterations  =  12
                                  Total H  = 1.110124e+02
                                  Total O  = 5.550622e+01

----------------------------Distribution of species----------------------------

                                               Log       Log       Log    mole V
   Species          Molality    Activity  Molality  Activity     Gamma   cm3/mol

   H+              1.105e-07   8.411e-08    -6.957    -7.075    -0.119      0.00
   OH-             8.579e-08   5.339e-08    -7.067    -7.273    -0.206     -3.33
   H2O             5.551e+01   9.898e-01     1.744    -0.004     0.000     18.03
Ba            2.000e-01
   Ba+2            2.000e-01   4.174e-02    -0.699    -1.379    -0.680    -11.80
   BaOH+           2.470e-08   1.665e-08    -7.607    -7.779    -0.171     (0)  
Cl            4.000e-01
   Cl-             4.000e-01   2.569e-01    -0.398    -0.590    -0.192     18.32
H(0)          4.197e-17
   H2              2.098e-17   2.409e-17   -16.678   -16.618     0.060     28.62
O(0)          0.000e+00
   O2              0.000e+00   0.000e+00   -62.552   -62.492     0.060     29.51

------------------------------Saturation indices-------------------------------

	Phase               SI   log IAP   log K(288 K,   1 atm)

	H2(g)           -13.55    -16.62   -3.07  H2
	H2O(g)           -1.77     -0.00    1.77  H2O
	O2(g)           -59.68    -62.49   -2.81  O2


Reaction step 11.

Using solution 1.	
Using temperature 1.	
Using pressure 1.	
Using reaction 1.	

Reaction 1.	

	  3.004e-01 moles of the following reaction have been added:

	                 Relative
	Reactant            moles

	BaCl2                1.00000

	                 Relative
	Element             moles
	Ba                   1.00000
	Cl                   2.00000

-----------------------------Solution composition------------------------------

	Elements           Molality       Moles

	Ba                3.004e-01   3.004e-01
	Cl                6.008e-01   6.008e-01

----------------------------Description of solution----------------------------

                                       pH  =   7.051      Charge balance
                                       pe  =  11.168      Adjusted to redox equilibrium
       Specific Conductance (uS/cm, 15 oC) = 36480
                          Density (g/cm3)  =   1.05353
                               Volume (L)  =   1.00856
                        Activity of water  =   0.985
                           Ionic strength  =   9.012e-01
                       Mass of water (kg)  =   1.000e+00
                 Total alkalinity (eq/kg)  =   1.511e-17
                    Total carbon (mol/kg)  =   0.000e+00
                       Total CO2 (mol/kg)  =   0.000e+00
                      Temperature (deg C)  =  15.00
                  Electrical balance (eq)  =   5.763e-15
 Percent error, 100*(Cat-|An|)/(Cat+|An|)  =   0.00
                               Iterations  =  22
                                  Total H  = 1.110124e+02
                                  Total O  = 5.550622e+01

----------------------------Distribution of species----------------------------

                                               Log       Log       Log    mole V
   Species          Molality    Activity  Molality  Activity     Gamma   cm3/mol

   H+              1.187e-07   8.887e-08    -6.926    -7.051    -0.126      0.00
   OH-             8.503e-08   5.026e-08    -7.070    -7.299    -0.228     -2.85
   H2O             5.551e+01   9.847e-01     1.744    -0.007     0.000     18.03
Ba            3.004e-01
   Ba+2            3.004e-01   5.829e-02    -0.522    -1.234    -0.712    -11.43
   BaOH+           3.364e-08   2.189e-08    -7.473    -7.660    -0.187     (0)  
Cl            6.008e-01
   Cl-             6.008e-01   3.716e-01    -0.221    -0.430    -0.209     18.47
H(0)          4.636e-40
   H2              2.318e-40   2.853e-40   -39.635   -39.545     0.090     28.62
O(0)          3.696e-17
   O2              1.848e-17   2.274e-17   -16.733   -16.643     0.090     29.51

------------------------------Saturation indices-------------------------------

	Phase               SI   log IAP   log K(288 K,   1 atm)

	H2(g)           -36.47    -39.54   -3.07  H2
	H2O(g)           -1.78     -0.01    1.77  H2O
	O2(g)           -13.83    -16.64   -2.81  O2


Reaction step 12.

Using solution 1.	
Using temperature 1.	
Using pressure 1.	
Using reaction 1.	

Reaction 1.	

	  4.064e-01 moles of the following reaction have been added:

	                 Relative
	Reactant            moles

	BaCl2                1.00000

	                 Relative
	Element             moles
	Ba                   1.00000
	Cl                   2.00000

-----------------------------Solution composition------------------------------

	Elements           Molality       Moles

	Ba                4.064e-01   4.064e-01
	Cl                8.128e-01   8.128e-01

----------------------------Description of solution----------------------------

                                       pH  =   7.028      Charge balance
                                       pe  =  -0.250      Adjusted to redox equilibrium
       Specific Conductance (uS/cm, 15 oC) = 44017
                          Density (g/cm3)  =   1.07228
                               Volume (L)  =   1.01152
                        Activity of water  =   0.979
                           Ionic strength  =   1.219e+00
                       Mass of water (kg)  =   1.000e+00
                 Total alkalinity (eq/kg)  =   6.114e-18
                    Total carbon (mol/kg)  =   0.000e+00
                       Total CO2 (mol/kg)  =   0.000e+00
                      Temperature (deg C)  =  15.00
                  Electrical balance (eq)  =   2.539e-15
 Percent error, 100*(Cat-|An|)/(Cat+|An|)  =   0.00
                               Iterations  =  18
                                  Total H  = 1.110124e+02
                                  Total O  = 5.550622e+01

----------------------------Distribution of species----------------------------

                                               Log       Log       Log    mole V
   Species          Molality    Activity  Molality  Activity     Gamma   cm3/mol

   H+              1.265e-07   9.369e-08    -6.898    -7.028    -0.130      0.00
   OH-             8.330e-08   4.741e-08    -7.079    -7.324    -0.245     -2.37
   H2O             5.551e+01   9.793e-01     1.744    -0.009     0.000     18.03
Ba            4.064e-01
   Ba+2            4.064e-01   7.741e-02    -0.391    -1.111    -0.720    -11.08
   BaOH+           4.320e-08   2.741e-08    -7.365    -7.562    -0.198     (0)  
Cl            8.128e-01
   Cl-             8.128e-01   4.908e-01    -0.090    -0.309    -0.219     18.60
H(0)          3.291e-17
   H2              1.645e-17   2.179e-17   -16.784   -16.662     0.122     28.62
O(0)          0.000e+00
   O2              0.000e+00   0.000e+00   -62.536   -62.414     0.122     29.51

------------------------------Saturation indices-------------------------------

	Phase               SI   log IAP   log K(288 K,   1 atm)

	H2(g)           -13.59    -16.66   -3.07  H2
	H2O(g)           -1.78     -0.01    1.77  H2O
	O2(g)           -59.60    -62.41   -2.81  O2


Reaction step 13.

Using solution 1.	
Using temperature 1.	
Using pressure 1.	
Using reaction 1.	

Reaction 1.	

	  5.000e-01 moles of the following reaction have been added:

	                 Relative
	Reactant            moles

	BaCl2                1.00000

	                 Relative
	Element             moles
	Ba                   1.00000
	Cl                   2.00000

-----------------------------Solution composition------------------------------

	Elements           Molality       Moles

	Ba                5.000e-01   5.000e-01
	Cl                1.000e+00   1.000e+00

----------------------------Description of solution----------------------------

                                       pH  =   7.009      Charge balance
                                       pe  =   0.111      Adjusted to redox equilibrium
       Specific Conductance (uS/cm, 15 oC) = 49833
                          Density (g/cm3)  =   1.08864
                               Volume (L)  =   1.01422
                        Activity of water  =   0.974
                           Ionic strength  =   1.500e+00
                       Mass of water (kg)  =   1.000e+00
                 Total alkalinity (eq/kg)  =  -5.242e-17
                    Total carbon (mol/kg)  =   0.000e+00
                       Total CO2 (mol/kg)  =   0.000e+00
                      Temperature (deg C)  =  15.00
                  Electrical balance (eq)  =   1.264e-15
 Percent error, 100*(Cat-|An|)/(Cat+|An|)  =   0.00
                               Iterations  =  31
                                  Total H  = 1.110124e+02
                                  Total O  = 5.550622e+01

----------------------------Distribution of species----------------------------

                                               Log       Log       Log    mole V
   Species          Molality    Activity  Molality  Activity     Gamma   cm3/mol

   H+              1.333e-07   9.802e-08    -6.875    -7.009    -0.133      0.00
   OH-             8.130e-08   4.510e-08    -7.090    -7.346    -0.256     -1.96
   H2O             5.551e+01   9.745e-01     1.744    -0.011     0.000     18.03
Ba            5.000e-01
   Ba+2            5.000e-01   9.632e-02    -0.301    -1.016    -0.715    -10.78
   BaOH+           5.199e-08   3.245e-08    -7.284    -7.489    -0.205     (0)  
Cl            1.000e+00
   Cl-             1.000e+00   5.957e-01     0.000    -0.225    -0.225     18.71
H(0)          6.416e-18
   H2              3.208e-18   4.531e-18   -17.494   -17.344     0.150     28.62
O(0)          0.000e+00
   O2              0.000e+00   0.000e+00   -61.204   -61.054     0.150     29.51

------------------------------Saturation indices-------------------------------

	Phase               SI   log IAP   log K(288 K,   1 atm)

	H2(g)           -14.27    -17.34   -3.07  H2
	H2O(g)           -1.78     -0.01    1.77  H2O
	O2(g)           -58.24    -61.05   -2.81  O2


Reaction step 14.

Using solution 1.	
Using temperature 1.	
Using pressure 1.	
Using reaction 1.	

Reaction 1.	

	  5.878e-01 moles of the following reaction have been added:

	                 Relative
	Reactant            moles

	BaCl2                1.00000

	                 Relative
	Element             moles
	Ba                   1.00000
	Cl                   2.00000

-----------------------------Solution composition------------------------------

	Elements           Molality       Moles

	Ba                5.878e-01   5.878e-01
	Cl                1.176e+00   1.176e+00

----------------------------Description of solution----------------------------

                                       pH  =   6.990      Charge balance
                                       pe  =  -0.302      Adjusted to redox equilibrium
       Specific Conductance (uS/cm, 15 oC) = 54847
                          Density (g/cm3)  =   1.10384
                               Volume (L)  =   1.01682
                        Activity of water  =   0.970
                           Ionic strength  =   1.763e+00
                       Mass of water (kg)  =   1.000e+00
                 Total alkalinity (eq/kg)  =   3.171e-17
                    Total carbon (mol/kg)  =   0.000e+00
                       Total CO2 (mol/kg)  =   0.000e+00
                      Temperature (deg C)  =  15.00
                  Electrical balance (eq)  =   7.688e-15
 Percent error, 100*(Cat-|An|)/(Cat+|An|)  =   0.00
                               Iterations  =  22
                                  Total H  = 1.110124e+02
                                  Total O  = 5.550622e+01

----------------------------Distribution of species----------------------------

                                               Log       Log       Log    mole V
   Species          Molality    Activity  Molality  Activity     Gamma   cm3/mol

   H+              1.397e-07   1.022e-07    -6.855    -6.990    -0.136      0.00
   OH-             7.913e-08   4.305e-08    -7.102    -7.366    -0.264     -1.59
   H2O             5.551e+01   9.700e-01     1.744    -0.013     0.000     18.03
Ba            5.878e-01
   Ba+2            5.878e-01   1.162e-01    -0.231    -0.935    -0.704    -10.52
   BaOH+           6.061e-08   3.736e-08    -7.217    -7.428    -0.210     (0)  
Cl            1.176e+00
   Cl-             1.176e+00   6.944e-01     0.070    -0.158    -0.229     18.80
H(0)          4.389e-17
   H2              2.195e-17   3.294e-17   -16.659   -16.482     0.176     28.62
O(0)          0.000e+00
   O2              0.000e+00   0.000e+00   -62.957   -62.781     0.176     29.51

------------------------------Saturation indices-------------------------------

	Phase               SI   log IAP   log K(288 K,   1 atm)

	H2(g)           -13.41    -16.48   -3.07  H2
	H2O(g)           -1.78     -0.01    1.77  H2O
	O2(g)           -59.97    -62.78   -2.81  O2


Reaction step 15.

Using solution 1.	
Using temperature 1.	
Using pressure 1.	
Using reaction 1.	

Reaction 1.	

	  7.000e-01 moles of the following reaction have been added:

	                 Relative
	Reactant            moles

	BaCl2                1.00000

	                 Relative
	Element             moles
	Ba                   1.00000
	Cl                   2.00000

-----------------------------Solution composition------------------------------

	Elements           Molality       Moles

	Ba                7.000e-01   7.000e-01
	Cl                1.400e+00   1.400e+00

----------------------------Description of solution----------------------------

                                       pH  =   6.967      Charge balance
                                       pe  =   0.014      Adjusted to redox equilibrium
       Specific Conductance (uS/cm, 15 oC) = 60902
                          Density (g/cm3)  =   1.12304
                               Volume (L)  =   1.02024
                        Activity of water  =   0.964
                           Ionic strength  =   2.100e+00
                       Mass of water (kg)  =   1.000e+00
                 Total alkalinity (eq/kg)  =  -8.193e-17
                    Total carbon (mol/kg)  =   0.000e+00
                       Total CO2 (mol/kg)  =   0.000e+00
                      Temperature (deg C)  =  15.00
                  Electrical balance (eq)  =   1.712e-12
 Percent error, 100*(Cat-|An|)/(Cat+|An|)  =   0.00
                               Iterations  =  27
                                  Total H  = 1.110124e+02
                                  Total O  = 5.550622e+01

----------------------------Distribution of species----------------------------

                                               Log       Log       Log    mole V
   Species          Molality    Activity  Molality  Activity     Gamma   cm3/mol

   H+              1.483e-07   1.079e-07    -6.829    -6.967    -0.138      0.00
   OH-             7.609e-08   4.053e-08    -7.119    -7.392    -0.274     -1.12
   H2O             5.551e+01   9.643e-01     1.744    -0.016     0.000     18.03
Ba            7.000e-01
   Ba+2            7.000e-01   1.452e-01    -0.155    -0.838    -0.683    -10.18
   BaOH+           7.224e-08   4.395e-08    -7.141    -7.357    -0.216     (0)  
Cl            1.400e+00
   Cl-             1.400e+00   8.213e-01     0.146    -0.085    -0.232     18.90
H(0)          1.056e-17
   H2              5.278e-18   8.560e-18   -17.278   -17.068     0.210     28.62
O(0)          0.000e+00
   O2              0.000e+00   0.000e+00   -61.826   -61.616     0.210     29.51

------------------------------Saturation indices-------------------------------

	Phase               SI   log IAP   log K(288 K,   1 atm)

	H2(g)           -13.99    -17.07   -3.07  H2
	H2O(g)           -1.79     -0.02    1.77  H2O
	O2(g)           -58.80    -61.62   -2.81  O2


Reaction step 16.

Using solution 1.	
Using temperature 1.	
Using pressure 1.	
Using reaction 1.	

Reaction 1.	

	  9.921e-01 moles of the following reaction have been added:

	                 Relative
	Reactant            moles

	BaCl2                1.00000

	                 Relative
	Element             moles
	Ba                   1.00000
	Cl                   2.00000

-----------------------------Solution composition------------------------------

	Elements           Molality       Moles

	Ba                9.921e-01   9.921e-01
	Cl                1.984e+00   1.984e+00

----------------------------Description of solution----------------------------

                                       pH  =   6.903      Charge balance
                                       pe  =  -0.039      Adjusted to redox equilibrium
       Specific Conductance (uS/cm, 15 oC) = 76424
                          Density (g/cm3)  =   1.17188
                               Volume (L)  =   1.02963
                        Activity of water  =   0.949
                           Ionic strength  =   2.976e+00
                       Mass of water (kg)  =   1.000e+00
                 Total alkalinity (eq/kg)  =   4.374e-17
                    Total carbon (mol/kg)  =   0.000e+00
                       Total CO2 (mol/kg)  =   0.000e+00
                      Temperature (deg C)  =  15.00
                  Electrical balance (eq)  =   2.302e-10
 Percent error, 100*(Cat-|An|)/(Cat+|An|)  =   0.00
                               Iterations  =  20
                                  Total H  = 1.110124e+02
                                  Total O  = 5.550622e+01

----------------------------Distribution of species----------------------------

                                               Log       Log       Log    mole V
   Species          Molality    Activity  Molality  Activity     Gamma   cm3/mol

   H+              1.735e-07   1.250e-07    -6.761    -6.903    -0.142      0.00
   OH-             6.736e-08   3.446e-08    -7.172    -7.463    -0.291      0.08
   H2O             5.551e+01   9.494e-01     1.744    -0.023     0.000     18.03
Ba            9.921e-01
   Ba+2            9.921e-01   2.447e-01    -0.003    -0.611    -0.608     -9.34
   BaOH+           1.061e-07   6.299e-08    -6.974    -7.201    -0.227     (0)  
Cl            1.984e+00
   Cl-             1.984e+00   1.159e+00     0.298     0.064    -0.233     19.15
H(0)          1.481e-17
   H2              7.406e-18   1.470e-17   -17.130   -16.833     0.298     28.62
O(0)          0.000e+00
   O2              0.000e+00   0.000e+00   -62.396   -62.099     0.298     29.51

------------------------------Saturation indices-------------------------------

	Phase               SI   log IAP   log K(288 K,   1 atm)

	H2(g)           -13.76    -16.83   -3.07  H2
	H2O(g)           -1.79     -0.02    1.77  H2O
	O2(g)           -59.29    -62.10   -2.81  O2


Reaction step 17.

Using solution 1.	
Using temperature 1.	
Using pressure 1.	
Using reaction 1.	

Reaction 1.	

	  1.000e+00 moles of the following reaction have been added:

	                 Relative
	Reactant            moles

	BaCl2                1.00000

	                 Relative
	Element             moles
	Ba                   1.00000
	Cl                   2.00000

-----------------------------Solution composition------------------------------

	Elements           Molality       Moles

	Ba                1.000e+00   1.000e+00
	Cl                2.000e+00   2.000e+00

----------------------------Description of solution----------------------------

                                       pH  =   6.901      Charge balance
                                       pe  =  11.698      Adjusted to redox equilibrium
       Specific Conductance (uS/cm, 15 oC) = 76861
                          Density (g/cm3)  =   1.17318
                               Volume (L)  =   1.02989
                        Activity of water  =   0.949
                           Ionic strength  =   3.000e+00
                       Mass of water (kg)  =   1.000e+00
                 Total alkalinity (eq/kg)  =   2.531e-16
                    Total carbon (mol/kg)  =   0.000e+00
                       Total CO2 (mol/kg)  =   0.000e+00
                      Temperature (deg C)  =  15.00
                  Electrical balance (eq)  =   4.705e-16
 Percent error, 100*(Cat-|An|)/(Cat+|An|)  =   0.00
                               Iterations  =  14
                                  Total H  = 1.110124e+02
                                  Total O  = 5.550622e+01

----------------------------Distribution of species----------------------------

                                               Log       Log       Log    mole V
   Species          Molality    Activity  Molality  Activity     Gamma   cm3/mol

   H+              1.742e-07   1.255e-07    -6.759    -6.901    -0.143      0.00
   OH-             6.711e-08   3.431e-08    -7.173    -7.465    -0.291      0.11
   H2O             5.551e+01   9.490e-01     1.744    -0.023     0.000     18.03
Ba            1.000e+00
   Ba+2            1.000e+00   2.480e-01    -0.000    -0.606    -0.606     -9.32
   BaOH+           1.071e-07   6.354e-08    -6.970    -7.197    -0.227     (0)  
Cl            2.000e+00
   Cl-             2.000e+00   1.168e+00     0.301     0.068    -0.233     19.15
H(0)          0.000e+00
   H2              0.000e+00   0.000e+00   -40.604   -40.304     0.300     28.62
O(0)          6.990e-16
   O2              3.495e-16   6.974e-16   -15.457   -15.157     0.300     29.51

------------------------------Saturation indices-------------------------------

	Phase               SI   log IAP   log K(288 K,   1 atm)

	H2(g)           -37.23    -40.30   -3.07  H2
	H2O(g)           -1.79     -0.02    1.77  H2O
	O2(g)           -12.34    -15.16   -2.81  O2


Reaction step 18.

Using solution 1.	
Using temperature 1.	
Using pressure 1.	
Using reaction 1.	

Reaction 1.	

	  1.200e+00 moles of the following reaction have been added:

	                 Relative
	Reactant            moles

	BaCl2                1.00000

	                 Relative
	Element             moles
	Ba                   1.00000
	Cl                   2.00000

-----------------------------Solution composition------------------------------

	Elements           Molality       Moles

	Ba                1.200e+00   1.200e+00
	Cl                2.400e+00   2.400e+00

----------------------------Description of solution----------------------------

                                       pH  =   6.855      Charge balance
                                       pe  =  -0.539      Adjusted to redox equilibrium
       Specific Conductance (uS/cm, 15 oC) = 88630
                          Density (g/cm3)  =   1.20563
                               Volume (L)  =   1.03671
                        Activity of water  =   0.939
                           Ionic strength  =   3.600e+00
                       Mass of water (kg)  =   1.000e+00
                 Total alkalinity (eq/kg)  =   1.501e-16
                    Total carbon (mol/kg)  =   0.000e+00
                       Total CO2 (mol/kg)  =   0.000e+00
                      Temperature (deg C)  =  15.00
                  Electrical balance (eq)  =   5.252e-11
 Percent error, 100*(Cat-|An|)/(Cat+|An|)  =   0.00
                               Iterations  =  72
                                  Total H  = 1.110124e+02
                                  Total O  = 5.550622e+01

----------------------------Distribution of species----------------------------

                                               Log       Log       Log    mole V
   Species          Molality    Activity  Molality  Activity     Gamma   cm3/mol

   H+              1.947e-07   1.395e-07    -6.711    -6.855    -0.145      0.00
   OH-             6.093e-08   3.052e-08    -7.215    -7.515    -0.300      0.90
   H2O             5.551e+01   9.388e-01     1.744    -0.027     0.000     18.03
Ba            1.200e+00
   Ba+2            1.200e+00   3.437e-01     0.079    -0.464    -0.543     -8.75
   BaOH+           1.337e-07   7.836e-08    -6.874    -7.106    -0.232     (0)  
Cl            2.400e+00
   Cl-             2.400e+00   1.408e+00     0.380     0.149    -0.232     19.30
H(0)          1.599e-16
   H2              7.995e-17   1.832e-16   -16.097   -15.737     0.360     28.62
O(0)          0.000e+00
   O2              0.000e+00   0.000e+00   -64.660   -64.300     0.360     29.51

------------------------------Saturation indices-------------------------------

	Phase               SI   log IAP   log K(288 K,   1 atm)

	H2(g)           -12.66    -15.74   -3.07  H2
	H2O(g)           -1.80     -0.03    1.77  H2O
	O2(g)           -61.49    -64.30   -2.81  O2


Reaction step 19.

Using solution 1.	
Using temperature 1.	
Using pressure 1.	
Using reaction 1.	

Reaction 1.	

	  1.224e+00 moles of the following reaction have been added:

	                 Relative
	Reactant            moles

	BaCl2                1.00000

	                 Relative
	Element             moles
	Ba                   1.00000
	Cl                   2.00000

-----------------------------Solution composition------------------------------

	Elements           Molality       Moles

	Ba                1.224e+00   1.224e+00
	Cl                2.449e+00   2.449e+00

----------------------------Description of solution----------------------------

                                       pH  =   6.850      Charge balance
                                       pe  =  11.843      Adjusted to redox equilibrium
       Specific Conductance (uS/cm, 15 oC) = 90179
                          Density (g/cm3)  =   1.20952
                               Volume (L)  =   1.03756
                        Activity of water  =   0.938
                           Ionic strength  =   3.673e+00
                       Mass of water (kg)  =   1.000e+00
                 Total alkalinity (eq/kg)  =   4.237e-16
                    Total carbon (mol/kg)  =   0.000e+00
                       Total CO2 (mol/kg)  =   0.000e+00
                      Temperature (deg C)  =  15.00
                  Electrical balance (eq)  =   6.587e-10
 Percent error, 100*(Cat-|An|)/(Cat+|An|)  =   0.00
                               Iterations  =  15
                                  Total H  = 1.110124e+02
                                  Total O  = 5.550622e+01

----------------------------Distribution of species----------------------------

                                               Log       Log       Log    mole V
   Species          Molality    Activity  Molality  Activity     Gamma   cm3/mol

   H+              1.973e-07   1.414e-07    -6.705    -6.850    -0.145      0.00
   OH-             6.018e-08   3.008e-08    -7.221    -7.522    -0.301      1.00
   H2O             5.551e+01   9.376e-01     1.744    -0.028     0.000     18.03
Ba            1.224e+00
   Ba+2            1.224e+00   3.572e-01     0.088    -0.447    -0.535     -8.68
   BaOH+           1.371e-07   8.027e-08    -6.863    -7.095    -0.233     (0)  
Cl            2.449e+00
   Cl-             2.449e+00   1.438e+00     0.389     0.158    -0.231     19.31
H(0)          0.000e+00
   H2              0.000e+00   0.000e+00   -40.857   -40.490     0.367     28.62
O(0)          1.376e-15
   O2              6.881e-16   1.603e-15   -15.162   -14.795     0.367     29.51

------------------------------Saturation indices-------------------------------

	Phase               SI   log IAP   log K(288 K,   1 atm)

	H2(g)           -37.42    -40.49   -3.07  H2
	H2O(g)           -1.80     -0.03    1.77  H2O
	O2(g)           -11.98    -14.80   -2.81  O2


Reaction step 20.

Using solution 1.	
Using temperature 1.	
Using pressure 1.	
Using reaction 1.	

Reaction 1.	

	  1.500e+00 moles of the following reaction have been added:

	                 Relative
	Reactant            moles

	BaCl2                1.00000

	                 Relative
	Element             moles
	Ba                   1.00000
	Cl                   2.00000

-----------------------------Solution composition------------------------------

	Elements           Molality       Moles

	Ba                1.500e+00   1.500e+00
	Cl                3.000e+00   3.000e+00

----------------------------Description of solution----------------------------

                                       pH  =   6.783      Charge balance
                                       pe  =  12.183      Adjusted to redox equilibrium
       Specific Conductance (uS/cm, 15 oC) = 110478
                          Density (g/cm3)  =   1.25286
                               Volume (L)  =   1.04750
                        Activity of water  =   0.923
                           Ionic strength  =   4.500e+00
                       Mass of water (kg)  =   1.000e+00
                 Total alkalinity (eq/kg)  =   1.600e-15
                    Total carbon (mol/kg)  =   0.000e+00
                       Total CO2 (mol/kg)  =   0.000e+00
                      Temperature (deg C)  =  15.00
                  Electrical balance (eq)  =   9.381e-09
 Percent error, 100*(Cat-|An|)/(Cat+|An|)  =   0.00
                               Iterations  =  60
                                  Total H  = 1.110124e+02
                                  Total O  = 5.550622e+01

----------------------------Distribution of species----------------------------

                                               Log       Log       Log    mole V
   Species          Molality    Activity  Molality  Activity     Gamma   cm3/mol

   H+              2.312e-07   1.648e-07    -6.636    -6.783    -0.147      0.00
   OH-             5.197e-08   2.542e-08    -7.284    -7.595    -0.311      2.08
   H2O             5.551e+01   9.235e-01     1.744    -0.035     0.000     18.03
Ba            1.500e+00
   Ba+2            1.500e+00   5.452e-01     0.176    -0.263    -0.440     -7.92
   BaOH+           1.792e-07   1.035e-07    -6.747    -6.985    -0.238     (0)  
Cl            3.000e+00
   Cl-             3.000e+00   1.783e+00     0.477     0.251    -0.226     19.49
H(0)          0.000e+00
   H2              0.000e+00   0.000e+00   -41.488   -41.038     0.450     28.62
O(0)          1.375e-14
   O2              6.875e-15   1.938e-14   -14.163   -13.713     0.450     29.51

------------------------------Saturation indices-------------------------------

	Phase               SI   log IAP   log K(288 K,   1 atm)

	H2(g)           -37.97    -41.04   -3.07  H2
	H2O(g)           -1.80     -0.03    1.77  H2O
	O2(g)           -10.90    -13.71   -2.81  O2


Reaction step 21.

Using solution 1.	
Using temperature 1.	
Using pressure 1.	
Using reaction 1.	

Reaction 1.	

	  1.586e+00 moles of the following reaction have been added:

	                 Relative
	Reactant            moles

	BaCl2                1.00000

	                 Relative
	Element             moles
	Ba                   1.00000
	Cl                   2.00000

-----------------------------Solution composition------------------------------

	Elements           Molality       Moles

	Ba                1.586e+00   1.586e+00
	Cl                3.172e+00   3.172e+00

----------------------------Description of solution----------------------------

                                       pH  =   6.762      Charge balance
                                       pe  =  11.970      Adjusted to redox equilibrium
       Specific Conductance (uS/cm, 15 oC) = 118139
                          Density (g/cm3)  =   1.26604
                               Volume (L)  =   1.05071
                        Activity of water  =   0.919
                           Ionic strength  =   4.757e+00
                       Mass of water (kg)  =   1.000e+00
                 Total alkalinity (eq/kg)  =  -3.594e-16
                    Total carbon (mol/kg)  =   0.000e+00
                       Total CO2 (mol/kg)  =   0.000e+00
                      Temperature (deg C)  =  15.00
                  Electrical balance (eq)  =   6.829e-15
 Percent error, 100*(Cat-|An|)/(Cat+|An|)  =   0.00
                               Iterations  =  17
                                  Total H  = 1.110124e+02
                                  Total O  = 5.550622e+01

----------------------------Distribution of species----------------------------

                                               Log       Log       Log    mole V
   Species          Molality    Activity  Molality  Activity     Gamma   cm3/mol

   H+              2.431e-07   1.731e-07    -6.614    -6.762    -0.148      0.00
   OH-             4.954e-08   2.409e-08    -7.305    -7.618    -0.313      2.41
   H2O             5.551e+01   9.191e-01     1.744    -0.037     0.000     18.03
Ba            1.586e+00
   Ba+2            1.586e+00   6.193e-01     0.200    -0.208    -0.408     -7.68
   BaOH+           1.935e-07   1.114e-07    -6.713    -6.953    -0.240     (0)  
Cl            3.172e+00
   Cl-             3.172e+00   1.893e+00     0.501     0.277    -0.224     19.55
H(0)          0.000e+00
   H2              0.000e+00   0.000e+00   -41.045   -40.569     0.476     28.62
O(0)          1.483e-15
   O2              7.417e-16   2.218e-15   -15.130   -14.654     0.476     29.51

------------------------------Saturation indices-------------------------------

	Phase               SI   log IAP   log K(288 K,   1 atm)

	H2(g)           -37.50    -40.57   -3.07  H2
	H2O(g)           -1.81     -0.04    1.77  H2O
	O2(g)           -11.84    -14.65   -2.81  O2


------------------
End of simulation.
------------------

------------------------------------
Reading input data for simulation 3.
------------------------------------

	USE solution 1
	REACTION_TEMPERATURE
	 25.000000
	REACTION_PRESSURE
	 1.000000
	REACTION
	 BaCl2 1
	0 0.003880 0.009300 0.015620 0.027360 0.029500 0.038790 0.050000 0.050100 0.072600 0.078810 0.099800 0.100000 0.149400 0.156900 0.166667 0.200000 0.236470 0.300400 0.316140 0.333333 0.386880 0.406400 0.500000 0.504000 0.587800 0.700000 0.787700 0.831700 0.833333 0.992100 1.000000 1.200000 1.224300 1.253800 1.500000 1.500000 1.503000 1.585800 1.622600
	USER_GRAPH
	 -headings 25.oC
	10 data 0, 23.468045, 22.557733, 23.894426, 24.569435, 24.416802, 24.868136, 25.242099, 24.929573, 25.401255, 25.441698, 25.410838, 27.047115, 25.814888, 26.102926, 26.170699, 26.332243, 26.907893, 27.130840, 27.354525, 27.331509, 27.739107, 27.519066, 28.397786, 29.657731, 28.484175, 30.135384, 29.206810, 30.447445, 29.371041, 29.955730, 30.780148, 31.437404, 30.674231, 31.567360, 32.960994, 31.590919, 32.246795, 31.833738, 32.553137,
	20 dim d(40)
	30 read d(1), d(2), d(3), d(4), d(5), d(6), d(7), d(8), d(9), d(10), d(11), d(12), d(13), d(14), d(15), d(16), d(17), d(18), d(19), d(20), d(21), d(22), d(23), d(24), d(25), d(26), d(27), d(28), d(29), d(30), d(31), d(32), d(33), d(34), d(35), d(36), d(37), d(38), d(39), d(40),
	40 if step_no = 1 then put(rho, 10)
	50 if step_no > 1 then Vmol = (1e3 + tot("Ba") * 208.246) / (tot("Ba") * rho) - 1e3 / (tot("Ba") * get(10))
	60 if step_no = 1 then dif = 0 else dif = Vmol - d(step_no)
	62 if step_no = 1 then goto 90
	70 plot_xy tot("Ba"), d(step_no), line_w = 0, color = Red #aph_x tot("Ba") # dif, str$(tc), str$(pressure), str$(step_no + get(1))
	80 plot_xy tot("Ba"), Vmol, symbol = None, color = Red #step_no = 264 then put(step_no + get(1), 1)
	90 end
	END
-----------------------------------------
Beginning of batch-reaction calculations.
-----------------------------------------

Reaction step 1.

Using solution 1.	
Using temperature 1.	
Using pressure 1.	
Using reaction 1.	

Reaction 1.	

	  0.000e+00 moles of the following reaction have been added:

	                 Relative
	Reactant            moles

	BaCl2                1.00000

	                 Relative
	Element             moles
	Ba                   1.00000
	Cl                   2.00000

-----------------------------Solution composition------------------------------

	Elements           Molality       Moles

	Pure water     

----------------------------Description of solution----------------------------

                                       pH  =   6.997      Charge balance
                                       pe  =  -0.163      Adjusted to redox equilibrium
       Specific Conductance (uS/cm, 25 oC) = 0
                          Density (g/cm3)  =   0.99704
                               Volume (L)  =   1.00297
                        Activity of water  =   1.000
                           Ionic strength  =   1.006e-07
                       Mass of water (kg)  =   1.000e+00
                 Total alkalinity (eq/kg)  =   9.660e-16
                    Total carbon (mol/kg)  =   0.000e+00
                       Total CO2 (mol/kg)  =   0.000e+00
                      Temperature (deg C)  =  25.00
                  Electrical balance (eq)  =  -9.660e-16
 Percent error, 100*(Cat-|An|)/(Cat+|An|)  =  -0.00
                               Iterations  =   8
                                  Total H  = 1.110124e+02
                                  Total O  = 5.550622e+01

----------------------------Distribution of species----------------------------

                                               Log       Log       Log    mole V
   Species          Molality    Activity  Molality  Activity     Gamma   cm3/mol

   OH-             1.006e-07   1.006e-07    -6.997    -6.997    -0.000     -4.14
   H+              1.006e-07   1.006e-07    -6.997    -6.997    -0.000      0.00
   H2O             5.551e+01   1.000e+00     1.744     0.000     0.000     18.07
H(0)          3.040e-17
   H2              1.520e-17   1.520e-17   -16.818   -16.818     0.000     28.61
O(0)          0.000e+00
   O2              0.000e+00   0.000e+00   -58.744   -58.744     0.000     30.40

------------------------------Saturation indices-------------------------------

	Phase               SI   log IAP   log K(298 K,   1 atm)

	H2(g)           -13.72    -16.82   -3.10  H2
	H2O(g)           -1.50      0.00    1.50  H2O
	O2(g)           -55.85    -58.74   -2.89  O2


Reaction step 2.

Using solution 1.	
Using temperature 1.	
Using pressure 1.	
Using reaction 1.	

Reaction 1.	

	  3.880e-03 moles of the following reaction have been added:

	                 Relative
	Reactant            moles

	BaCl2                1.00000

	                 Relative
	Element             moles
	Ba                   1.00000
	Cl                   2.00000

-----------------------------Solution composition------------------------------

	Elements           Molality       Moles

	Ba                3.880e-03   3.880e-03
	Cl                7.760e-03   7.760e-03

----------------------------Description of solution----------------------------

                                       pH  =   6.992      Charge balance
                                       pe  =  -0.160      Adjusted to redox equilibrium
       Specific Conductance (uS/cm, 25 oC) = 963
                          Density (g/cm3)  =   0.99776
                               Volume (L)  =   1.00306
                        Activity of water  =   1.000
                           Ionic strength  =   1.164e-02
                       Mass of water (kg)  =   1.000e+00
                 Total alkalinity (eq/kg)  =   1.166e-15
                    Total carbon (mol/kg)  =   0.000e+00
                       Total CO2 (mol/kg)  =   0.000e+00
                      Temperature (deg C)  =  25.00
                  Electrical balance (eq)  =   9.731e-14
 Percent error, 100*(Cat-|An|)/(Cat+|An|)  =   0.00
                               Iterations  =   8
                                  Total H  = 1.110124e+02
                                  Total O  = 5.550622e+01

----------------------------Distribution of species----------------------------

                                               Log       Log       Log    mole V
   Species          Molality    Activity  Molality  Activity     Gamma   cm3/mol

   H+              1.121e-07   1.019e-07    -6.950    -6.992    -0.042      0.00
   OH-             1.112e-07   9.935e-08    -6.954    -7.003    -0.049     -4.02
   H2O             5.551e+01   9.998e-01     1.744    -0.000     0.000     18.07
Ba            3.880e-03
   Ba+2            3.880e-03   2.499e-03    -2.411    -2.602    -0.191    -12.51
   BaOH+           9.258e-10   8.313e-10    -9.034    -9.080    -0.047     (0)  
Cl            7.760e-03
   Cl-             7.760e-03   6.939e-03    -2.110    -2.159    -0.049     18.15
H(0)          3.067e-17
   H2              1.534e-17   1.538e-17   -16.814   -16.813     0.001     28.61
O(0)          0.000e+00
   O2              0.000e+00   0.000e+00   -58.755   -58.754     0.001     30.40

------------------------------Saturation indices-------------------------------

	Phase               SI   log IAP   log K(298 K,   1 atm)

	H2(g)           -13.71    -16.81   -3.10  H2
	H2O(g)           -1.50     -0.00    1.50  H2O
	O2(g)           -55.86    -58.75   -2.89  O2


Reaction step 3.

Using solution 1.	
Using temperature 1.	
Using pressure 1.	
Using reaction 1.	

Reaction 1.	

	  9.300e-03 moles of the following reaction have been added:

	                 Relative
	Reactant            moles

	BaCl2                1.00000

	                 Relative
	Element             moles
	Ba                   1.00000
	Cl                   2.00000

-----------------------------Solution composition------------------------------

	Elements           Molality       Moles

	Ba                9.300e-03   9.300e-03
	Cl                1.860e-02   1.860e-02

----------------------------Description of solution----------------------------

                                       pH  =   6.987      Charge balance
                                       pe  =  -0.146      Adjusted to redox equilibrium
       Specific Conductance (uS/cm, 25 oC) = 2191
                          Density (g/cm3)  =   0.99875
                               Volume (L)  =   1.00319
                        Activity of water  =   1.000
                           Ionic strength  =   2.790e-02
                       Mass of water (kg)  =   1.000e+00
                 Total alkalinity (eq/kg)  =   1.410e-15
                    Total carbon (mol/kg)  =   0.000e+00
                       Total CO2 (mol/kg)  =   0.000e+00
                      Temperature (deg C)  =  25.00
                  Electrical balance (eq)  =   4.811e-11
 Percent error, 100*(Cat-|An|)/(Cat+|An|)  =   0.00
                               Iterations  =   8
                                  Total H  = 1.110124e+02
                                  Total O  = 5.550622e+01

----------------------------Distribution of species----------------------------

                                               Log       Log       Log    mole V
   Species          Molality    Activity  Molality  Activity     Gamma   cm3/mol

   H+              1.176e-07   1.031e-07    -6.930    -6.987    -0.057      0.00
   OH-             1.157e-07   9.813e-08    -6.937    -7.008    -0.071     -3.95
   H2O             5.551e+01   9.995e-01     1.744    -0.000     0.000     18.07
Ba            9.300e-03
   Ba+2            9.300e-03   4.935e-03    -2.032    -2.307    -0.275    -12.34
   BaOH+           1.891e-09   1.621e-09    -8.723    -8.790    -0.067     (0)  
Cl            1.860e-02
   Cl-             1.860e-02   1.581e-02    -1.730    -1.801    -0.071     18.20
H(0)          2.935e-17
   H2              1.468e-17   1.477e-17   -16.833   -16.831     0.003     28.61
O(0)          0.000e+00
   O2              0.000e+00   0.000e+00   -58.722   -58.719     0.003     30.40

------------------------------Saturation indices-------------------------------

	Phase               SI   log IAP   log K(298 K,   1 atm)

	H2(g)           -13.73    -16.83   -3.10  H2
	H2O(g)           -1.50     -0.00    1.50  H2O
	O2(g)           -55.83    -58.72   -2.89  O2


Reaction step 4.

Using solution 1.	
Using temperature 1.	
Using pressure 1.	
Using reaction 1.	

Reaction 1.	

	  1.562e-02 moles of the following reaction have been added:

	                 Relative
	Reactant            moles

	BaCl2                1.00000

	                 Relative
	Element             moles
	Ba                   1.00000
	Cl                   2.00000

-----------------------------Solution composition------------------------------

	Elements           Molality       Moles

	Ba                1.562e-02   1.562e-02
	Cl                3.124e-02   3.124e-02

----------------------------Description of solution----------------------------

                                       pH  =   6.982      Charge balance
                                       pe  =  -0.160      Adjusted to redox equilibrium
       Specific Conductance (uS/cm, 25 oC) = 3544
                          Density (g/cm3)  =   0.99991
                               Volume (L)  =   1.00334
                        Activity of water  =   0.999
                           Ionic strength  =   4.686e-02
                       Mass of water (kg)  =   1.000e+00
                 Total alkalinity (eq/kg)  =   3.171e-17
                    Total carbon (mol/kg)  =   0.000e+00
                       Total CO2 (mol/kg)  =   0.000e+00
                      Temperature (deg C)  =  25.00
                  Electrical balance (eq)  =  -2.553e-17
 Percent error, 100*(Cat-|An|)/(Cat+|An|)  =  -0.00
                               Iterations  =   9
                                  Total H  = 1.110124e+02
                                  Total O  = 5.550622e+01

----------------------------Distribution of species----------------------------

                                               Log       Log       Log    mole V
   Species          Molality    Activity  Molality  Activity     Gamma   cm3/mol

   H+              1.217e-07   1.043e-07    -6.915    -6.982    -0.067      0.00
   OH-             1.189e-07   9.701e-08    -6.925    -7.013    -0.088     -3.88
   H2O             5.551e+01   9.992e-01     1.744    -0.000     0.000     18.07
Ba            1.562e-02
   Ba+2            1.562e-02   7.195e-03    -1.806    -2.143    -0.337    -12.22
   BaOH+           2.819e-09   2.337e-09    -8.550    -8.631    -0.081     (0)  
Cl            3.124e-02
   Cl-             3.124e-02   2.557e-02    -1.505    -1.592    -0.087     18.25
H(0)          3.175e-17
   H2              1.587e-17   1.605e-17   -16.799   -16.795     0.005     28.61
O(0)          0.000e+00
   O2              0.000e+00   0.000e+00   -58.796   -58.791     0.005     30.40

------------------------------Saturation indices-------------------------------

	Phase               SI   log IAP   log K(298 K,   1 atm)

	H2(g)           -13.69    -16.79   -3.10  H2
	H2O(g)           -1.50     -0.00    1.50  H2O
	O2(g)           -55.90    -58.79   -2.89  O2


Reaction step 5.

Using solution 1.	
Using temperature 1.	
Using pressure 1.	
Using reaction 1.	

Reaction 1.	

	  2.736e-02 moles of the following reaction have been added:

	                 Relative
	Reactant            moles

	BaCl2                1.00000

	                 Relative
	Element             moles
	Ba                   1.00000
	Cl                   2.00000

-----------------------------Solution composition------------------------------

	Elements           Molality       Moles

	Ba                2.736e-02   2.736e-02
	Cl                5.472e-02   5.472e-02

----------------------------Description of solution----------------------------

                                       pH  =   6.975      Charge balance
                                       pe  =  -0.169      Adjusted to redox equilibrium
       Specific Conductance (uS/cm, 25 oC) = 5926
                          Density (g/cm3)  =   1.00205
                               Volume (L)  =   1.00364
                        Activity of water  =   0.999
                           Ionic strength  =   8.208e-02
                       Mass of water (kg)  =   1.000e+00
                 Total alkalinity (eq/kg)  =   3.395e-17
                    Total carbon (mol/kg)  =   0.000e+00
                       Total CO2 (mol/kg)  =   0.000e+00
[...]
                       Mass of water (kg)  =   1.000e+00
                 Total alkalinity (eq/kg)  =   4.735e-17
                    Total carbon (mol/kg)  =   0.000e+00
                       Total CO2 (mol/kg)  =   0.000e+00
                      Temperature (deg C)  = 140.00
                           Pressure (atm)  =  3.57
                  Electrical balance (eq)  =   2.145e-09
 Percent error, 100*(Cat-|An|)/(Cat+|An|)  =   0.00
                               Iterations  =   7
                                  Total H  = 1.110124e+02
                                  Total O  = 5.550622e+01

----------------------------Distribution of species----------------------------

                                               Log       Log       Log    mole V
   Species          Molality    Activity  Molality  Activity     Gamma   cm3/mol

   H+              2.438e-06   1.644e-06    -5.613    -5.784    -0.171      0.00
   OH-             2.435e-06   1.118e-06    -5.613    -5.951    -0.338     -4.16
   H2O             5.551e+01   9.700e-01     1.744    -0.013     0.000     19.45
Ba            5.878e-01
   Ba+2            5.878e-01   6.267e-02    -0.231    -1.203    -0.972     -7.10
   BaOH+           2.318e-09   1.253e-09    -8.635    -8.902    -0.267     (0)  
Cl            1.176e+00
   Cl-             1.176e+00   5.886e-01     0.070    -0.230    -0.300     15.89
H(0)          2.090e-24
   H2              1.045e-24   1.568e-24   -23.981   -23.805     0.176     28.56
O(0)          1.284e-18
   O2              6.419e-19   9.635e-19   -18.193   -18.016     0.176     35.45

------------------------------Saturation indices-------------------------------

	Phase               SI   log IAP   log K(413 K,   4 atm)

	H2(g)           -20.80    -23.80   -3.01  H2
	H2O(g)            0.53     -0.01   -0.54  H2O
	O2(g)           -14.95    -18.02   -3.07  O2


Reaction step 13.

Using solution 1.	
Using temperature 1.	
Using pressure 1.	
Using reaction 1.	

Reaction 1.	

	  7.877e-01 moles of the following reaction have been added:

	                 Relative
	Reactant            moles

	BaCl2                1.00000

	                 Relative
	Element             moles
	Ba                   1.00000
	Cl                   2.00000

-----------------------------Solution composition------------------------------

	Elements           Molality       Moles

	Ba                7.877e-01   7.877e-01
	Cl                1.575e+00   1.575e+00

----------------------------Description of solution----------------------------

                                       pH  =   5.780      Charge balance
                                       pe  =   0.548      Adjusted to redox equilibrium
       Specific Conductance (uS/cm, 140 oC) = 269587
                          Density (g/cm3)  =   1.05799
                               Volume (L)  =   1.10023
                        Activity of water  =   0.960
                           Ionic strength  =   2.363e+00
                       Mass of water (kg)  =   1.000e+00
                 Total alkalinity (eq/kg)  =   1.787e-17
                    Total carbon (mol/kg)  =   0.000e+00
                       Total CO2 (mol/kg)  =   0.000e+00
                      Temperature (deg C)  = 140.00
                           Pressure (atm)  =  3.57
                  Electrical balance (eq)  =   6.797e-10
 Percent error, 100*(Cat-|An|)/(Cat+|An|)  =   0.00
                               Iterations  =  11
                                  Total H  = 1.110124e+02
                                  Total O  = 5.550622e+01

----------------------------Distribution of species----------------------------

                                               Log       Log       Log    mole V
   Species          Molality    Activity  Molality  Activity     Gamma   cm3/mol

   H+              2.491e-06   1.661e-06    -5.604    -5.780    -0.176      0.00
   OH-             2.487e-06   1.095e-06    -5.604    -5.961    -0.356     -2.83
   H2O             5.551e+01   9.598e-01     1.744    -0.018     0.000     19.45
Ba            7.877e-01
   Ba+2            7.877e-01   8.994e-02    -0.104    -1.046    -0.942     -6.90
   BaOH+           3.342e-09   1.761e-09    -8.476    -8.754    -0.278     (0)  
Cl            1.575e+00
   Cl-             1.575e+00   7.755e-01     0.197    -0.110    -0.308     16.45
H(0)          7.932e-17
   H2              3.966e-17   6.834e-17   -16.402   -16.165     0.236     28.56
O(0)          5.766e-34
   O2              2.883e-34   4.967e-34   -33.540   -33.304     0.236     35.45

------------------------------Saturation indices-------------------------------

	Phase               SI   log IAP   log K(413 K,   4 atm)

	H2(g)           -13.16    -16.17   -3.01  H2
	H2O(g)            0.52     -0.02   -0.54  H2O
	O2(g)           -30.24    -33.30   -3.07  O2


Reaction step 14.

Using solution 1.	
Using temperature 1.	
Using pressure 1.	
Using reaction 1.	

Reaction 1.	

	  8.333e-01 moles of the following reaction have been added:

	                 Relative
	Reactant            moles

	BaCl2                1.00000

	                 Relative
	Element             moles
	Ba                   1.00000
	Cl                   2.00000

-----------------------------Solution composition------------------------------

	Elements           Molality       Moles

	Ba                8.333e-01   8.333e-01
	Cl                1.667e+00   1.667e+00

----------------------------Description of solution----------------------------

                                       pH  =   5.779      Charge balance
                                       pe  =   4.379      Adjusted to redox equilibrium
       Specific Conductance (uS/cm, 140 oC) = 275853
                          Density (g/cm3)  =   1.06527
                               Volume (L)  =   1.10164
                        Activity of water  =   0.957
                           Ionic strength  =   2.500e+00
                       Mass of water (kg)  =   1.000e+00
                 Total alkalinity (eq/kg)  =   6.370e-17
                    Total carbon (mol/kg)  =   0.000e+00
                       Total CO2 (mol/kg)  =   0.000e+00
                      Temperature (deg C)  = 140.00
                           Pressure (atm)  =  3.57
                  Electrical balance (eq)  =   8.589e-10
 Percent error, 100*(Cat-|An|)/(Cat+|An|)  =   0.00
                               Iterations  =   7
                                  Total H  = 1.110124e+02
                                  Total O  = 5.550622e+01

----------------------------Distribution of species----------------------------

                                               Log       Log       Log    mole V
   Species          Molality    Activity  Molality  Activity     Gamma   cm3/mol

   H+              2.500e-06   1.664e-06    -5.602    -5.779    -0.177      0.00
   OH-             2.496e-06   1.090e-06    -5.603    -5.963    -0.360     -2.53
   H2O             5.551e+01   9.575e-01     1.744    -0.019     0.000     19.45
Ba            8.333e-01
   Ba+2            8.333e-01   9.722e-02    -0.079    -1.012    -0.933     -6.86
   BaOH+           3.615e-09   1.895e-09    -8.442    -8.722    -0.281     (0)  
Cl            1.667e+00
   Cl-             1.667e+00   8.186e-01     0.222    -0.087    -0.309     16.56
H(0)          1.679e-24
   H2              8.394e-25   1.493e-24   -24.076   -23.826     0.250     28.56
O(0)          1.165e-18
   O2              5.827e-19   1.036e-18   -18.235   -17.985     0.250     35.45

------------------------------Saturation indices-------------------------------

	Phase               SI   log IAP   log K(413 K,   4 atm)

	H2(g)           -20.82    -23.83   -3.01  H2
	H2O(g)            0.52     -0.02   -0.54  H2O
	O2(g)           -14.92    -17.98   -3.07  O2


Reaction step 15.

Using solution 1.	
Using temperature 1.	
Using pressure 1.	
Using reaction 1.	

Reaction 1.	

	  9.921e-01 moles of the following reaction have been added:

	                 Relative
	Reactant            moles

	BaCl2                1.00000

	                 Relative
	Element             moles
	Ba                   1.00000
	Cl                   2.00000

-----------------------------Solution composition------------------------------

	Elements           Molality       Moles

	Ba                9.921e-01   9.921e-01
	Cl                1.984e+00   1.984e+00

----------------------------Description of solution----------------------------

                                       pH  =   5.776      Charge balance
                                       pe  =   0.619      Adjusted to redox equilibrium
       Specific Conductance (uS/cm, 140 oC) = 297104
                          Density (g/cm3)  =   1.09033
                               Volume (L)  =   1.10664
                        Activity of water  =   0.949
                           Ionic strength  =   2.976e+00
                       Mass of water (kg)  =   1.000e+00
                 Total alkalinity (eq/kg)  =   3.383e-17
                    Total carbon (mol/kg)  =   0.000e+00
                       Total CO2 (mol/kg)  =   0.000e+00
                      Temperature (deg C)  = 140.00
                           Pressure (atm)  =  3.57
                  Electrical balance (eq)  =   4.597e-11
 Percent error, 100*(Cat-|An|)/(Cat+|An|)  =   0.00
                               Iterations  =  11
                                  Total H  = 1.110124e+02
                                  Total O  = 5.550622e+01

----------------------------Distribution of species----------------------------

                                               Log       Log       Log    mole V
   Species          Molality    Activity  Molality  Activity     Gamma   cm3/mol

   H+              2.527e-06   1.673e-06    -5.597    -5.776    -0.179      0.00
   OH-             2.523e-06   1.075e-06    -5.598    -5.969    -0.370     -1.54
   H2O             5.551e+01   9.494e-01     1.744    -0.023     0.000     19.45
Ba            9.921e-01
   Ba+2            9.921e-01   1.263e-01    -0.003    -0.899    -0.895     -6.75
   BaOH+           4.701e-09   2.428e-09    -8.328    -8.615    -0.287     (0)  
Cl            1.984e+00
   Cl-             1.984e+00   9.703e-01     0.298    -0.013    -0.311     16.93
H(0)          5.050e-17
   H2              2.525e-17   5.011e-17   -16.598   -16.300     0.298     28.56
O(0)          9.112e-34
   O2              4.556e-34   9.041e-34   -33.341   -33.044     0.298     35.45

------------------------------Saturation indices-------------------------------

	Phase               SI   log IAP   log K(413 K,   4 atm)

	H2(g)           -13.29    -16.30   -3.01  H2
	H2O(g)            0.52     -0.02   -0.54  H2O
	O2(g)           -29.98    -33.04   -3.07  O2


Reaction step 16.

Using solution 1.	
Using temperature 1.	
Using pressure 1.	
Using reaction 1.	

Reaction 1.	

	  1.224e+00 moles of the following reaction have been added:

	                 Relative
	Reactant            moles

	BaCl2                1.00000

	                 Relative
	Element             moles
	Ba                   1.00000
	Cl                   2.00000

-----------------------------Solution composition------------------------------

	Elements           Molality       Moles

	Ba                1.224e+00   1.224e+00
	Cl                2.449e+00   2.449e+00

----------------------------Description of solution----------------------------

                                       pH  =   5.774      Charge balance
                                       pe  =   4.908      Adjusted to redox equilibrium
       Specific Conductance (uS/cm, 140 oC) = 329243
                          Density (g/cm3)  =   1.12629
                               Volume (L)  =   1.11424
                        Activity of water  =   0.938
                           Ionic strength  =   3.673e+00
                       Mass of water (kg)  =   1.000e+00
                 Total alkalinity (eq/kg)  =  -1.931e-16
                    Total carbon (mol/kg)  =   0.000e+00
                       Total CO2 (mol/kg)  =   0.000e+00
                      Temperature (deg C)  = 140.00
                           Pressure (atm)  =  3.57
                  Electrical balance (eq)  =   6.394e-10
 Percent error, 100*(Cat-|An|)/(Cat+|An|)  =   0.00
                               Iterations  =   7
                                  Total H  = 1.110124e+02
                                  Total O  = 5.550622e+01

----------------------------Distribution of species----------------------------

                                               Log       Log       Log    mole V
   Species          Molality    Activity  Molality  Activity     Gamma   cm3/mol

   H+              2.556e-06   1.681e-06    -5.592    -5.774    -0.182      0.00
   OH-             2.550e-06   1.056e-06    -5.594    -5.976    -0.383     -0.15
   H2O             5.551e+01   9.376e-01     1.744    -0.028     0.000     19.45
Ba            1.224e+00
   Ba+2            1.224e+00   1.814e-01     0.088    -0.741    -0.829     -6.63
   BaOH+           6.748e-09   3.428e-09    -8.171    -8.465    -0.294     (0)  
Cl            2.449e+00
   Cl-             2.449e+00   1.198e+00     0.389     0.078    -0.310     17.40
H(0)          1.146e-25
   H2              5.731e-26   1.335e-25   -25.242   -24.874     0.367     28.56
O(0)          1.066e-16
   O2              5.330e-17   1.242e-16   -16.273   -15.906     0.367     35.45

------------------------------Saturation indices-------------------------------

	Phase               SI   log IAP   log K(413 K,   4 atm)

	H2(g)           -21.87    -24.87   -3.01  H2
	H2O(g)            0.51     -0.03   -0.54  H2O
	O2(g)           -12.84    -15.91   -3.07  O2


Reaction step 17.

Using solution 1.	
Using temperature 1.	
Using pressure 1.	
Using reaction 1.	

Reaction 1.	

	  1.500e+00 moles of the following reaction have been added:

	                 Relative
	Reactant            moles

	BaCl2                1.00000

	                 Relative
	Element             moles
	Ba                   1.00000
	Cl                   2.00000

-----------------------------Solution composition------------------------------

	Elements           Molality       Moles

	Ba                1.500e+00   1.500e+00
	Cl                3.000e+00   3.000e+00

----------------------------Description of solution----------------------------

                                       pH  =   5.773      Charge balance
                                       pe  =   5.751      Adjusted to redox equilibrium
       Specific Conductance (uS/cm, 140 oC) = 374247
                          Density (g/cm3)  =   1.16798
                               Volume (L)  =   1.12362
                        Activity of water  =   0.923
                           Ionic strength  =   4.500e+00
                       Mass of water (kg)  =   1.000e+00
                 Total alkalinity (eq/kg)  =   1.632e-16
                    Total carbon (mol/kg)  =   0.000e+00
                       Total CO2 (mol/kg)  =   0.000e+00
                      Temperature (deg C)  = 140.00
                           Pressure (atm)  =  3.57
                  Electrical balance (eq)  =   1.064e-11
 Percent error, 100*(Cat-|An|)/(Cat+|An|)  =   0.00
                               Iterations  =   8
                                  Total H  = 1.110124e+02
                                  Total O  = 5.550622e+01

----------------------------Distribution of species----------------------------

                                               Log       Log       Log    mole V
   Species          Molality    Activity  Molality  Activity     Gamma   cm3/mol

   H+              2.579e-06   1.687e-06    -5.588    -5.773    -0.184      0.00
   OH-             2.569e-06   1.037e-06    -5.590    -5.984    -0.394      1.42
   H2O             5.551e+01   9.235e-01     1.744    -0.035     0.000     19.45
Ba            1.500e+00
   Ba+2            1.500e+00   2.729e-01     0.176    -0.564    -0.740     -6.52
   BaOH+           1.012e-08   5.064e-09    -7.995    -8.296    -0.301     (0)  
Cl            3.000e+00
   Cl-             3.000e+00   1.479e+00     0.477     0.170    -0.307     17.89
H(0)          1.966e-27
   H2              9.831e-28   2.771e-27   -27.007   -26.557     0.450     28.56
O(0)          1.985e-13
   O2              9.926e-14   2.798e-13   -13.003   -12.553     0.450     35.45

------------------------------Saturation indices-------------------------------

	Phase               SI   log IAP   log K(413 K,   4 atm)

	H2(g)           -23.55    -26.56   -3.01  H2
	H2O(g)            0.51     -0.03   -0.54  H2O
	O2(g)            -9.49    -12.55   -3.07  O2


Reaction step 18.

Using solution 1.	
Using temperature 1.	
Using pressure 1.	
Using reaction 1.	

Reaction 1.	

	  1.586e+00 moles of the following reaction have been added:

	                 Relative
	Reactant            moles

	BaCl2                1.00000

	                 Relative
	Element             moles
	Ba                   1.00000
	Cl                   2.00000

-----------------------------Solution composition------------------------------

	Elements           Molality       Moles

	Ba                1.586e+00   1.586e+00
	Cl                3.172e+00   3.172e+00

----------------------------Description of solution----------------------------

                                       pH  =   5.773      Charge balance
                                       pe  =  -0.131      Adjusted to redox equilibrium
       Specific Conductance (uS/cm, 140 oC) = 390799
                          Density (g/cm3)  =   1.18074
                               Volume (L)  =   1.12662
                        Activity of water  =   0.919
                           Ionic strength  =   4.757e+00
                       Mass of water (kg)  =   1.000e+00
                 Total alkalinity (eq/kg)  =  -2.895e-16
                    Total carbon (mol/kg)  =   0.000e+00
                       Total CO2 (mol/kg)  =   0.000e+00
                      Temperature (deg C)  = 140.00
                           Pressure (atm)  =  3.57
                  Electrical balance (eq)  =   7.522e-12
 Percent error, 100*(Cat-|An|)/(Cat+|An|)  =   0.00
                               Iterations  =  12
                                  Total H  = 1.110124e+02
                                  Total O  = 5.550622e+01

----------------------------Distribution of species----------------------------

                                               Log       Log       Log    mole V
   Species          Molality    Activity  Molality  Activity     Gamma   cm3/mol

   H+              2.585e-06   1.688e-06    -5.588    -5.773    -0.185      0.00
   OH-             2.573e-06   1.032e-06    -5.589    -5.987    -0.397      1.89
   H2O             5.551e+01   9.191e-01     1.744    -0.037     0.000     19.45
Ba            1.586e+00
   Ba+2            1.586e+00   3.088e-01     0.200    -0.510    -0.711     -6.50
   BaOH+           1.144e-08   5.699e-09    -7.942    -8.244    -0.303     (0)  
Cl            3.172e+00
   Cl-             3.172e+00   1.569e+00     0.501     0.196    -0.306     18.02
H(0)          1.077e-15
   H2              5.383e-16   1.610e-15   -15.269   -14.793     0.476     28.56
O(0)          5.490e-37
   O2              2.745e-37   8.209e-37   -36.561   -36.086     0.476     35.45

------------------------------Saturation indices-------------------------------

	Phase               SI   log IAP   log K(413 K,   4 atm)

	H2(g)           -11.78    -14.79   -3.01  H2
	H2O(g)            0.51     -0.04   -0.54  H2O
	O2(g)           -33.02    -36.09   -3.07  O2


------------------
End of simulation.
------------------

-------------------------------------
Reading input data for simulation 11.
-------------------------------------

------------------------------
End of Run after 0.09 Seconds.
------------------------------

