   Input file: Vm_BaCl2_sol
  Output file: Vm_BaCl2_sol.out
Database file: ../database/phreeqc.dat

------------------
Reading data base.
------------------

	SOLUTION_MASTER_SPECIES
	SOLUTION_SPECIES
	PHASES
	EXCHANGE_MASTER_SPECIES
	EXCHANGE_SPECIES
	SURFACE_MASTER_SPECIES
	SURFACE_SPECIES
	RATES
	END
------------------------------------
Reading input data for simulation 1.
------------------------------------

	DATABASE ../database/phreeqc.dat
	SOLUTION_SPECIES
	H2O = OH- + H+
		log_k	-14.0
		delta_h 13.362	kcal
		analytical_expression   235.27  8.638e-2  -9.9073e3 -96.2854   2.8e+03  -4.0136e-5 # 0 - 200 oC
		gamma	3.5	0.0
		dw	 5.27e-9
		vm -5.7 0.11 -13e-4  1 0 0 -3.77e-3 0 # NaOH.xls, KOH.xls Laliberte, tc >= 15oC, Na, K < 0.51M. 1 - 1000 atm, pKw(T, rho) from Bandura and Lvov, 2006, J. Phys. Chem. Ref. Data, 35, 15.
	Cl- = Cl-
		gamma	3.5	0.015
		dw	 2.03e-9
		millero 16.37 0.0896 -0.001264 -1.494 0.034 -0.000621
		vm   1.6256503E+01  1.0415929E-01  -1.2534252E-03   4.6744285E-01  -2.7011839E-02  2.9497981E-04   0.0000000E+00  4.0366004E-02 # 0-100 oC, HCl.xls, Laliberte, 2009. Halite solubility
	Ba+2 = Ba+2
		gamma	5.0	0.0
	 dw 0.848e-9
		vm  -1.3980231E+01  7.8095963E-03   5.2138494E-04  -5.0005061E-03   3.4305735E-02 -5.6951485E-04   0.0000000E+00   1.5575026E+00
	SOLUTION 1
	 pH 7 charge
	END
-------------------------------------------
Beginning of initial solution calculations.
-------------------------------------------

Initial solution 1.	

-----------------------------Solution composition------------------------------

	Elements           Molality       Moles

	Pure water     

----------------------------Description of solution----------------------------

                                       pH  =   6.997      Charge balance
                                       pe  =   4.000    
       Specific Conductance (uS/cm, 25 oC) = 0
                          Density (g/cm3)  =   0.99700
                        Activity of water  =   1.000
                           Ionic strength  =   1.008e-07
                       Mass of water (kg)  =   1.000e+00
                 Total alkalinity (eq/kg)  =   3.540e-17
                    Total carbon (mol/kg)  =   0.000e+00
                       Total CO2 (mol/kg)  =   0.000e+00
                      Temperature (deg C)  =  25.00
                  Electrical balance (eq)  =  -3.540e-17
 Percent error, 100*(Cat-|An|)/(Cat+|An|)  =  -0.00
                               Iterations  =   2
                                  Total H  = 1.110124e+02
                                  Total O  = 5.550622e+01

----------------------------Distribution of species----------------------------

                                            Log       Log         Log     mole V
   Species          Molality    Activity  Molality  Activity     Gamma   cm3/mol

   OH-             1.008e-07   1.008e-07    -6.997    -6.997    -0.000     -3.76
   H+              1.008e-07   1.008e-07    -6.997    -6.997    -0.000      0.00
   H2O             5.551e+01   1.000e+00     1.744    -0.000     0.000     18.07
H(0)          1.438e-25
   H2              7.189e-26   7.189e-26   -25.143   -25.143     0.000     20.00
O(0)          0.000e+00
   O2              0.000e+00   0.000e+00   -42.093   -42.093     0.000     35.00

------------------------------Saturation indices-------------------------------

	Phase               SI   log IAP   log K(298 K,   1 atm)

	H2(g)           -22.04    -25.14   -3.10  H2
	H2O(g)           -1.50     -0.00    1.50  H2O
	O2(g)           -39.20    -42.09   -2.89  O2


------------------
End of simulation.
------------------

------------------------------------
Reading input data for simulation 2.
------------------------------------

	USE solution 1
	REACTION_TEMPERATURE
	 15.000000
	REACTION_PRESSURE
	 1.000000
	REACTION
	 BaCl2 1
	0 0.009300 0.029500 0.050000 0.050100 0.072600 0.099800 0.100000 0.149400 0.200000 0.300400 0.406400 0.500000 0.587800 0.700000 0.992100 1.000000 1.200000 1.224300 1.500000 1.585800
	USER_GRAPH
	 -headings 15.oC
	-axis_titles "BaCl2 / (mol/kg H2O)" "BaCl2 molar volume / (cm3/mol)"
	10 data 0, 20.741910, 22.782720, 23.271951, 23.109905, 23.619726, 23.751890, 25.234145, 24.332228, 24.681781, 25.436091, 25.958348, 26.972194, 26.983782, 28.857845, 28.547434, 29.563096, 30.198633, 29.441347, 31.763106, 30.622114,
	20 dim d(21)
	30 read d(1), d(2), d(3), d(4), d(5), d(6), d(7), d(8), d(9), d(10), d(11), d(12), d(13), d(14), d(15), d(16), d(17), d(18), d(19), d(20), d(21), 
	40 if step_no = 1 then put(rho, 10)
	50 if step_no > 1 then Vm = (1e3 + tot("Ba") * 208.246) / (tot("Ba") * rho) - 1e3 / (tot("Ba") * get(10))
	60 if step_no = 1 then dif = 0 else dif = Vm - d(step_no)
	62 if step_no = 1 then goto 90
	70 plot_xy tot("Ba"), d(step_no), line_w = 0, color = Yellow #aph_x tot("Ba") # dif, str$(tc), str$(pressure), str$(step_no + get(1))
	80 plot_xy tot("Ba"), Vm, symbol = None, color = Yellow #step_no = 264 then put(step_no + get(1), 1)
	90 end
	END
-----------------------------------------
Beginning of batch-reaction calculations.
-----------------------------------------

Reaction step 1.

Using solution 1.	
Using temperature 1.	
Using pressure 1.	
Using reaction 1.	

Reaction 1.	

	  0.000e+00 moles of the following reaction have been added:

	                 Relative
	Reactant            moles

	BaCl2                1.00000

	                 Relative
	Element             moles
	Ba                   1.00000
	Cl                   2.00000

-----------------------------Solution composition------------------------------

	Elements           Molality       Moles

	Pure water     

----------------------------Description of solution----------------------------

                                       pH  =   7.173      Charge balance
                                       pe  =  11.591      Adjusted to redox equilibrium
       Specific Conductance (uS/cm, 15 oC) = 0
                          Density (g/cm3)  =   0.99905
                        Activity of water  =   1.000
                           Ionic strength  =   6.715e-08
                       Mass of water (kg)  =   1.000e+00
                 Total alkalinity (eq/kg)  =   3.541e-17
                    Total carbon (mol/kg)  =   0.000e+00
                       Total CO2 (mol/kg)  =   0.000e+00
                      Temperature (deg C)  =  15.00
                  Electrical balance (eq)  =  -3.541e-17
 Percent error, 100*(Cat-|An|)/(Cat+|An|)  =  -0.00
                               Iterations  =  33
                                  Total H  = 1.110124e+02
                                  Total O  = 5.550622e+01

----------------------------Distribution of species----------------------------

                                            Log       Log         Log     mole V
   Species          Molality    Activity  Molality  Activity     Gamma   cm3/mol

   OH-             6.715e-08   6.713e-08    -7.173    -7.173    -0.000     -4.34
   H+              6.715e-08   6.713e-08    -7.173    -7.173    -0.000      0.00
   H2O             5.551e+01   1.000e+00     1.744    -0.000     0.000     18.03
H(0)          0.000e+00
   H2              0.000e+00   0.000e+00   -40.634   -40.634     0.000     20.00
O(0)          7.088e-15
   O2              3.544e-15   3.544e-15   -14.451   -14.451     0.000     35.00

------------------------------Saturation indices-------------------------------

	Phase               SI   log IAP   log K(288 K,   1 atm)

	H2(g)           -37.56    -40.63   -3.07  H2
	H2O(g)           -1.77     -0.00    1.77  H2O
	O2(g)           -11.64    -14.45   -2.81  O2


Reaction step 2.

Using solution 1.	
Using temperature 1.	
Using pressure 1.	
Using reaction 1.	

Reaction 1.	

	  9.300e-03 moles of the following reaction have been added:

	                 Relative
	Reactant            moles

	BaCl2                1.00000

	                 Relative
	Element             moles
	Ba                   1.00000
	Cl                   2.00000

-----------------------------Solution composition------------------------------

	Elements           Molality       Moles

	Ba                9.300e-03   9.300e-03
	Cl                1.860e-02   1.860e-02

----------------------------Description of solution----------------------------

                                       pH  =   7.158      Charge balance
                                       pe  =  11.607      Adjusted to redox equilibrium
       Specific Conductance (uS/cm, 15 oC) = 1724
                          Density (g/cm3)  =   1.00078
                        Activity of water  =   1.000
                           Ionic strength  =   2.790e-02
                       Mass of water (kg)  =   1.000e+00
                 Total alkalinity (eq/kg)  =   3.627e-17
                    Total carbon (mol/kg)  =   0.000e+00
                       Total CO2 (mol/kg)  =   0.000e+00
                      Temperature (deg C)  =  15.00
                  Electrical balance (eq)  =  -4.626e-17
 Percent error, 100*(Cat-|An|)/(Cat+|An|)  =  -0.00
                               Iterations  =  11
                                  Total H  = 1.110124e+02
                                  Total O  = 5.550622e+01

----------------------------Distribution of species----------------------------

                                            Log       Log         Log     mole V
   Species          Molality    Activity  Molality  Activity     Gamma   cm3/mol

   H+              7.909e-08   6.950e-08    -7.102    -7.158    -0.056      0.00
   OH-             7.621e-08   6.481e-08    -7.118    -7.188    -0.070     -4.17
   H2O             5.551e+01   9.995e-01     1.744    -0.000     0.000     18.03
Ba            9.300e-03
   Ba+2            9.300e-03   5.072e-03    -2.032    -2.295    -0.263    -13.24
   BaOH+           2.888e-09   2.472e-09    -8.539    -8.607    -0.068     (0)  
Cl            1.860e-02
   Cl-             1.860e-02   1.583e-02    -1.730    -1.800    -0.070     17.68
H(0)          0.000e+00
   H2              0.000e+00   0.000e+00   -40.639   -40.636     0.003     20.00
O(0)          7.087e-15
   O2              3.544e-15   3.566e-15   -14.451   -14.448     0.003     35.00

------------------------------Saturation indices-------------------------------

	Phase               SI   log IAP   log K(288 K,   1 atm)

	H2(g)           -37.56    -40.64   -3.07  H2
	H2O(g)           -1.77     -0.00    1.77  H2O
	O2(g)           -11.64    -14.45   -2.81  O2


Reaction step 3.

Using solution 1.	
Using temperature 1.	
Using pressure 1.	
Using reaction 1.	

Reaction 1.	

	  2.950e-02 moles of the following reaction have been added:

	                 Relative
	Reactant            moles

	BaCl2                1.00000

	                 Relative
	Element             moles
	Ba                   1.00000
	Cl                   2.00000

-----------------------------Solution composition------------------------------

	Elements           Molality       Moles

	Ba                2.950e-02   2.950e-02
	Cl                5.900e-02   5.900e-02

----------------------------Description of solution----------------------------

                                       pH  =   7.140      Charge balance
                                       pe  =  11.627      Adjusted to redox equilibrium
       Specific Conductance (uS/cm, 15 oC) = 5011
                          Density (g/cm3)  =   1.00452
                        Activity of water  =   0.998
                           Ionic strength  =   8.850e-02
                       Mass of water (kg)  =   1.000e+00
                 Total alkalinity (eq/kg)  =   3.368e-17
                    Total carbon (mol/kg)  =   0.000e+00
                       Total CO2 (mol/kg)  =   0.000e+00
                      Temperature (deg C)  =  15.00
                  Electrical balance (eq)  =   9.052e-15
 Percent error, 100*(Cat-|An|)/(Cat+|An|)  =   0.00
                               Iterations  =  11
                                  Total H  = 1.110124e+02
                                  Total O  = 5.550622e+01

----------------------------Distribution of species----------------------------

                                            Log       Log         Log     mole V
   Species          Molality    Activity  Molality  Activity     Gamma   cm3/mol

   H+              8.709e-08   7.251e-08    -7.060    -7.140    -0.080      0.00
   OH-             8.019e-08   6.205e-08    -7.096    -7.207    -0.111     -4.00
   H2O             5.551e+01   9.985e-01     1.744    -0.001     0.000     18.03
Ba            2.950e-02
   Ba+2            2.950e-02   1.170e-02    -1.530    -1.932    -0.402    -12.89
   BaOH+           6.900e-09   5.459e-09    -8.161    -8.263    -0.102     (0)  
Cl            5.900e-02
   Cl-             5.900e-02   4.580e-02    -1.229    -1.339    -0.110     17.80
H(0)          0.000e+00
   H2              0.000e+00   0.000e+00   -40.648   -40.639     0.009     20.00
O(0)          7.089e-15
   O2              3.544e-15   3.617e-15   -14.450   -14.442     0.009     35.00

------------------------------Saturation indices-------------------------------

	Phase               SI   log IAP   log K(288 K,   1 atm)

	H2(g)           -37.57    -40.64   -3.07  H2
	H2O(g)           -1.77     -0.00    1.77  H2O
	O2(g)           -11.63    -14.44   -2.81  O2


Reaction step 4.

Using solution 1.	
Using temperature 1.	
Using pressure 1.	
Using reaction 1.	

Reaction 1.	

	  5.000e-02 moles of the following reaction have been added:

	                 Relative
	Reactant            moles

	BaCl2                1.00000

	                 Relative
	Element             moles
	Ba                   1.00000
	Cl                   2.00000

-----------------------------Solution composition------------------------------

	Elements           Molality       Moles

	Ba                5.000e-02   5.000e-02
	Cl                1.000e-01   1.000e-01

----------------------------Description of solution----------------------------

                                       pH  =   7.127      Charge balance
                                       pe  =  11.642      Adjusted to redox equilibrium
       Specific Conductance (uS/cm, 15 oC) = 8102
                          Density (g/cm3)  =   1.00829
                        Activity of water  =   0.997
                           Ionic strength  =   1.500e-01
                       Mass of water (kg)  =   1.000e+00
                 Total alkalinity (eq/kg)  =   3.261e-17
                    Total carbon (mol/kg)  =   0.000e+00
                       Total CO2 (mol/kg)  =   0.000e+00
                      Temperature (deg C)  =  15.00
                  Electrical balance (eq)  =   1.194e-12
 Percent error, 100*(Cat-|An|)/(Cat+|An|)  =   0.00
                               Iterations  =  11
                                  Total H  = 1.110124e+02
                                  Total O  = 5.550622e+01

----------------------------Distribution of species----------------------------

                                            Log       Log         Log     mole V
   Species          Molality    Activity  Molality  Activity     Gamma   cm3/mol

   H+              9.201e-08   7.465e-08    -7.036    -7.127    -0.091      0.00
   OH-             8.209e-08   6.021e-08    -7.086    -7.220    -0.135     -3.87
   H2O             5.551e+01   9.974e-01     1.744    -0.001     0.000     18.03
Ba            5.000e-02
   Ba+2            5.000e-02   1.671e-02    -1.301    -1.777    -0.476    -12.67
   BaOH+           9.917e-09   7.567e-09    -8.004    -8.121    -0.117     (0)  
Cl            1.000e-01
   Cl-             1.000e-01   7.372e-02    -1.000    -1.132    -0.132     17.88
H(0)          0.000e+00
   H2              0.000e+00   0.000e+00   -40.658   -40.643     0.015     20.00
O(0)          7.089e-15
   O2              3.545e-15   3.669e-15   -14.450   -14.435     0.015     35.00

------------------------------Saturation indices-------------------------------

	Phase               SI   log IAP   log K(288 K,   1 atm)

	H2(g)           -37.57    -40.64   -3.07  H2
	H2O(g)           -1.77     -0.00    1.77  H2O
	O2(g)           -11.62    -14.44   -2.81  O2


Reaction step 5.

Using solution 1.	
Using temperature 1.	
Using pressure 1.	
Using reaction 1.	

Reaction 1.	

	  5.010e-02 moles of the following reaction have been added:

	                 Relative
	Reactant            moles

	BaCl2                1.00000

	                 Relative
	Element             moles
	Ba                   1.00000
	Cl                   2.00000

-----------------------------Solution composition------------------------------

	Elements           Molality       Moles

	Ba                5.010e-02   5.010e-02
	Cl                1.002e-01   1.002e-01

----------------------------Description of solution----------------------------

                                       pH  =   7.127      Charge balance
                                       pe  =  11.642      Adjusted to redox equilibrium
       Specific Conductance (uS/cm, 15 oC) = 8117
                          Density (g/cm3)  =   1.00831
                        Activity of water  =   0.997
                           Ionic strength  =   1.503e-01
                       Mass of water (kg)  =   1.000e+00
                 Total alkalinity (eq/kg)  =   4.205e-17
                    Total carbon (mol/kg)  =   0.000e+00
                       Total CO2 (mol/kg)  =   0.000e+00
                      Temperature (deg C)  =  15.00
                  Electrical balance (eq)  =   1.215e-12
 Percent error, 100*(Cat-|An|)/(Cat+|An|)  =   0.00
                               Iterations  =  11
                                  Total H  = 1.110124e+02
                                  Total O  = 5.550622e+01

----------------------------Distribution of species----------------------------

                                            Log       Log         Log     mole V
   Species          Molality    Activity  Molality  Activity     Gamma   cm3/mol

   H+              9.203e-08   7.466e-08    -7.036    -7.127    -0.091      0.00
   OH-             8.210e-08   6.020e-08    -7.086    -7.220    -0.135     -3.87
   H2O             5.551e+01   9.974e-01     1.744    -0.001     0.000     18.03
Ba            5.010e-02
   Ba+2            5.010e-02   1.673e-02    -1.300    -1.776    -0.476    -12.67
   BaOH+           9.930e-09   7.576e-09    -8.003    -8.121    -0.118     (0)  
Cl            1.002e-01
   Cl-             1.002e-01   7.386e-02    -0.999    -1.132    -0.132     17.88
H(0)          0.000e+00
   H2              0.000e+00   0.000e+00   -40.658   -40.643     0.015     20.00
O(0)          7.084e-15
   O2              3.542e-15   3.667e-15   -14.451   -14.436     0.015     35.00

------------------------------Saturation indices-------------------------------

	Phase               SI   log IAP   log K(288 K,   1 atm)

	H2(g)           -37.57    -40.64   -3.07  H2
	H2O(g)           -1.77     -0.00    1.77  H2O
	O2(g)           -11.62    -14.44   -2.81  O2


Reaction step 6.

Using solution 1.	
Using temperature 1.	
Using pressure 1.	
Using reaction 1.	

Reaction 1.	

	  7.260e-02 moles of the following reaction have been added:

	                 Relative
	Reactant            moles

	BaCl2                1.00000

	                 Relative
	Element             moles
	Ba                   1.00000
	Cl                   2.00000

-----------------------------Solution composition------------------------------

	Elements           Molality       Moles

	Ba                7.260e-02   7.260e-02
	Cl                1.452e-01   1.452e-01

----------------------------Description of solution----------------------------

                                       pH  =   7.116      Charge balance
                                       pe  =  11.654      Adjusted to redox equilibrium
       Specific Conductance (uS/cm, 15 oC) = 11358
                          Density (g/cm3)  =   1.01244
                        Activity of water  =   0.996
                           Ionic strength  =   2.178e-01
                       Mass of water (kg)  =   1.000e+00
                 Total alkalinity (eq/kg)  =   4.278e-17
                    Total carbon (mol/kg)  =   0.000e+00
                       Total CO2 (mol/kg)  =   0.000e+00
                      Temperature (deg C)  =  15.00
                  Electrical balance (eq)  =   2.593e-11
 Percent error, 100*(Cat-|An|)/(Cat+|An|)  =   0.00
                               Iterations  =  11
                                  Total H  = 1.110124e+02
                                  Total O  = 5.550622e+01

----------------------------Distribution of species----------------------------

                                            Log       Log         Log     mole V
   Species          Molality    Activity  Molality  Activity     Gamma   cm3/mol

   H+              9.602e-08   7.651e-08    -7.018    -7.116    -0.099      0.00
   OH-             8.339e-08   5.868e-08    -7.079    -7.231    -0.153     -3.73
   H2O             5.551e+01   9.963e-01     1.744    -0.002     0.000     18.03
Ba            7.260e-02
   Ba+2            7.260e-02   2.136e-02    -1.139    -1.670    -0.531    -12.48
   BaOH+           1.262e-08   9.427e-09    -7.899    -8.026    -0.127     (0)  
Cl            1.452e-01
   Cl-             1.452e-01   1.029e-01    -0.838    -0.987    -0.149     17.95
H(0)          0.000e+00
   H2              0.000e+00   0.000e+00   -40.669   -40.647     0.022     20.00
O(0)          7.085e-15
   O2              3.543e-15   3.725e-15   -14.451   -14.429     0.022     35.00

------------------------------Saturation indices-------------------------------

	Phase               SI   log IAP   log K(288 K,   1 atm)

	H2(g)           -37.57    -40.65   -3.07  H2
	H2O(g)           -1.77     -0.00    1.77  H2O
	O2(g)           -11.62    -14.43   -2.81  O2


Reaction step 7.

Using solution 1.	
Using temperature 1.	
Using pressure 1.	
Using reaction 1.	

Reaction 1.	

	  9.980e-02 moles of the following reaction have been added:

	                 Relative
	Reactant            moles

	BaCl2                1.00000

	                 Relative
	Element             moles
	Ba                   1.00000
	Cl                   2.00000

-----------------------------Solution composition------------------------------

	Elements           Molality       Moles

	Ba                9.980e-02   9.980e-02
	Cl                1.996e-01   1.996e-01

----------------------------Description of solution----------------------------

                                       pH  =   7.106      Charge balance
                                       pe  =  11.667      Adjusted to redox equilibrium
       Specific Conductance (uS/cm, 15 oC) = 15142
                          Density (g/cm3)  =   1.01741
                        Activity of water  =   0.995
                           Ionic strength  =   2.994e-01
                       Mass of water (kg)  =   1.000e+00
                 Total alkalinity (eq/kg)  =   5.104e-17
                    Total carbon (mol/kg)  =   0.000e+00
                       Total CO2 (mol/kg)  =   0.000e+00
                      Temperature (deg C)  =  15.00
                  Electrical balance (eq)  =   2.825e-10
 Percent error, 100*(Cat-|An|)/(Cat+|An|)  =   0.00
                               Iterations  =  11
                                  Total H  = 1.110124e+02
                                  Total O  = 5.550622e+01

----------------------------Distribution of species----------------------------

                                            Log       Log         Log     mole V
   Species          Molality    Activity  Molality  Activity     Gamma   cm3/mol

   H+              9.978e-08   7.832e-08    -7.001    -7.106    -0.105      0.00
   OH-             8.444e-08   5.724e-08    -7.073    -7.242    -0.169     -3.58
   H2O             5.551e+01   9.949e-01     1.744    -0.002     0.000     18.03
Ba            9.980e-02
   Ba+2            9.980e-02   2.627e-02    -1.001    -1.581    -0.580    -12.30
   BaOH+           1.534e-08   1.131e-08    -7.814    -7.947    -0.132     (0)  
Cl            1.996e-01
   Cl-             1.996e-01   1.367e-01    -0.700    -0.864    -0.164     18.03
H(0)          0.000e+00
   H2              0.000e+00   0.000e+00   -40.682   -40.652     0.030     20.00
O(0)          7.091e-15
   O2              3.545e-15   3.799e-15   -14.450   -14.420     0.030     35.00

------------------------------Saturation indices-------------------------------

	Phase               SI   log IAP   log K(288 K,   1 atm)

	H2(g)           -37.58    -40.65   -3.07  H2
	H2O(g)           -1.77     -0.00    1.77  H2O
	O2(g)           -11.61    -14.42   -2.81  O2


Reaction step 8.

Using solution 1.	
Using temperature 1.	
Using pressure 1.	
Using reaction 1.	

Reaction 1.	

	  1.000e-01 moles of the following reaction have been added:

	                 Relative
	Reactant            moles

	BaCl2                1.00000

	                 Relative
	Element             moles
	Ba                   1.00000
	Cl                   2.00000

-----------------------------Solution composition------------------------------

	Elements           Molality       Moles

	Ba                1.000e-01   1.000e-01
	Cl                2.000e-01   2.000e-01

----------------------------Description of solution----------------------------

                                       pH  =   7.106      Charge balance
                                       pe  =  11.667      Adjusted to redox equilibrium
       Specific Conductance (uS/cm, 15 oC) = 15169
                          Density (g/cm3)  =   1.01744
                        Activity of water  =   0.995
                           Ionic strength  =   3.000e-01
                       Mass of water (kg)  =   1.000e+00
                 Total alkalinity (eq/kg)  =   5.632e-17
                    Total carbon (mol/kg)  =   0.000e+00
                       Total CO2 (mol/kg)  =   0.000e+00
                      Temperature (deg C)  =  15.00
                  Electrical balance (eq)  =   2.866e-10
 Percent error, 100*(Cat-|An|)/(Cat+|An|)  =   0.00
                               Iterations  =  11
                                  Total H  = 1.110124e+02
                                  Total O  = 5.550622e+01

----------------------------Distribution of species----------------------------

                                            Log       Log         Log     mole V
   Species          Molality    Activity  Molality  Activity     Gamma   cm3/mol

   H+              9.980e-08   7.833e-08    -7.001    -7.106    -0.105      0.00
   OH-             8.445e-08   5.723e-08    -7.073    -7.242    -0.169     -3.58
   H2O             5.551e+01   9.949e-01     1.744    -0.002     0.000     18.03
Ba            1.000e-01
   Ba+2            1.000e-01   2.631e-02    -1.000    -1.580    -0.580    -12.30
   BaOH+           1.536e-08   1.132e-08    -7.814    -7.946    -0.132     (0)  
Cl            2.000e-01
   Cl-             2.000e-01   1.370e-01    -0.699    -0.863    -0.164     18.03
H(0)          0.000e+00
   H2              0.000e+00   0.000e+00   -40.682   -40.652     0.030     20.00
O(0)          7.088e-15
   O2              3.544e-15   3.798e-15   -14.450   -14.420     0.030     35.00

------------------------------Saturation indices-------------------------------

	Phase               SI   log IAP   log K(288 K,   1 atm)

	H2(g)           -37.58    -40.65   -3.07  H2
	H2O(g)           -1.77     -0.00    1.77  H2O
	O2(g)           -11.61    -14.42   -2.81  O2


Reaction step 9.

Using solution 1.	
Using temperature 1.	
Using pressure 1.	
Using reaction 1.	

Reaction 1.	

	  1.494e-01 moles of the following reaction have been added:

	                 Relative
	Reactant            moles

	BaCl2                1.00000

	                 Relative
	Element             moles
	Ba                   1.00000
	Cl                   2.00000

-----------------------------Solution composition------------------------------

	Elements           Molality       Moles

	Ba                1.494e-01   1.494e-01
	Cl                2.988e-01   2.988e-01

----------------------------Description of solution----------------------------

                                       pH  =   7.092      Charge balance
                                       pe  =  11.685      Adjusted to redox equilibrium
       Specific Conductance (uS/cm, 15 oC) = 21400
                          Density (g/cm3)  =   1.02642
                        Activity of water  =   0.992
                           Ionic strength  =   4.482e-01
                       Mass of water (kg)  =   1.000e+00
                 Total alkalinity (eq/kg)  =   1.124e-17
                    Total carbon (mol/kg)  =   0.000e+00
                       Total CO2 (mol/kg)  =   0.000e+00
                      Temperature (deg C)  =  15.00
                  Electrical balance (eq)  =  -4.377e-17
 Percent error, 100*(Cat-|An|)/(Cat+|An|)  =  -0.00
                               Iterations  =  12
                                  Total H  = 1.110124e+02
                                  Total O  = 5.550622e+01

----------------------------Distribution of species----------------------------

                                            Log       Log         Log     mole V
   Species          Molality    Activity  Molality  Activity     Gamma   cm3/mol

   H+              1.050e-07   8.089e-08    -6.979    -7.092    -0.113      0.00
   OH-             8.566e-08   5.528e-08    -7.067    -7.257    -0.190     -3.33
   H2O             5.551e+01   9.924e-01     1.744    -0.003     0.000     18.03
Ba            1.494e-01
   Ba+2            1.494e-01   3.411e-02    -0.826    -1.467    -0.641    -12.03
   BaOH+           1.929e-08   1.418e-08    -7.715    -7.848    -0.134     (0)  
Cl            2.988e-01
   Cl-             2.988e-01   1.958e-01    -0.525    -0.708    -0.183     18.15
H(0)          0.000e+00
   H2              0.000e+00   0.000e+00   -40.705   -40.660     0.045     20.00
O(0)          7.100e-15
   O2              3.550e-15   3.936e-15   -14.450   -14.405     0.045     35.00

------------------------------Saturation indices-------------------------------

	Phase               SI   log IAP   log K(288 K,   1 atm)

	H2(g)           -37.59    -40.66   -3.07  H2
	H2O(g)           -1.77     -0.00    1.77  H2O
	O2(g)           -11.59    -14.40   -2.81  O2


Reaction step 10.

Using solution 1.	
Using temperature 1.	
Using pressure 1.	
Using reaction 1.	

Reaction 1.	

	  2.000e-01 moles of the following reaction have been added:

	                 Relative
	Reactant            moles

	BaCl2                1.00000

	                 Relative
	Element             moles
	Ba                   1.00000
	Cl                   2.00000

-----------------------------Solution composition------------------------------

	Elements           Molality       Moles

	Ba                2.000e-01   2.000e-01
	Cl                4.000e-01   4.000e-01

----------------------------Description of solution----------------------------

                                       pH  =   7.081      Charge balance
                                       pe  =  11.700      Adjusted to redox equilibrium
       Specific Conductance (uS/cm, 15 oC) = 27003
                          Density (g/cm3)  =   1.03555
                        Activity of water  =   0.990
                           Ionic strength  =   6.000e-01
                       Mass of water (kg)  =   1.000e+00
                 Total alkalinity (eq/kg)  =   5.421e-17
                    Total carbon (mol/kg)  =   0.000e+00
                       Total CO2 (mol/kg)  =   0.000e+00
                      Temperature (deg C)  =  15.00
                  Electrical balance (eq)  =   8.809e-16
 Percent error, 100*(Cat-|An|)/(Cat+|An|)  =   0.00
                               Iterations  =  12
                                  Total H  = 1.110124e+02
                                  Total O  = 5.550622e+01

----------------------------Distribution of species----------------------------

                                            Log       Log         Log     mole V
   Species          Molality    Activity  Molality  Activity     Gamma   cm3/mol

   H+              1.089e-07   8.289e-08    -6.963    -7.081    -0.119      0.00
   OH-             8.647e-08   5.381e-08    -7.063    -7.269    -0.206     -3.09
   H2O             5.551e+01   9.898e-01     1.744    -0.004     0.000     18.03
Ba            2.000e-01
   Ba+2            2.000e-01   4.122e-02    -0.699    -1.385    -0.686    -11.81
   BaOH+           2.243e-08   1.668e-08    -7.649    -7.778    -0.129     (0)  
Cl            4.000e-01
   Cl-             4.000e-01   2.541e-01    -0.398    -0.595    -0.197     18.26
H(0)          0.000e+00
   H2              0.000e+00   0.000e+00   -40.729   -40.669     0.060     20.00
O(0)          7.078e-15
   O2              3.539e-15   4.064e-15   -14.451   -14.391     0.060     35.00

------------------------------Saturation indices-------------------------------

	Phase               SI   log IAP   log K(288 K,   1 atm)

	H2(g)           -37.60    -40.67   -3.07  H2
	H2O(g)           -1.77     -0.00    1.77  H2O
	O2(g)           -11.58    -14.39   -2.81  O2


Reaction step 11.

Using solution 1.	
Using temperature 1.	
Using pressure 1.	
Using reaction 1.	

Reaction 1.	

	  3.004e-01 moles of the following reaction have been added:

	                 Relative
	Reactant            moles

	BaCl2                1.00000

	                 Relative
	Element             moles
	Ba                   1.00000
	Cl                   2.00000

-----------------------------Solution composition------------------------------

	Elements           Molality       Moles

	Ba                3.004e-01   3.004e-01
	Cl                6.008e-01   6.008e-01

----------------------------Description of solution----------------------------

                                       pH  =   7.067      Charge balance
                                       pe  =  11.724      Adjusted to redox equilibrium
       Specific Conductance (uS/cm, 15 oC) = 35668
                          Density (g/cm3)  =   1.05351
                        Activity of water  =   0.985
                           Ionic strength  =   9.012e-01
                       Mass of water (kg)  =   1.000e+00
                 Total alkalinity (eq/kg)  =  -5.920e-17
                    Total carbon (mol/kg)  =   0.000e+00
                       Total CO2 (mol/kg)  =   0.000e+00
                      Temperature (deg C)  =  15.00
                  Electrical balance (eq)  =   4.341e-14
 Percent error, 100*(Cat-|An|)/(Cat+|An|)  =   0.00
                               Iterations  =  12
                                  Total H  = 1.110124e+02
                                  Total O  = 5.550622e+01

----------------------------Distribution of species----------------------------

                                            Log       Log         Log     mole V
   Species          Molality    Activity  Molality  Activity     Gamma   cm3/mol

   H+              1.145e-07   8.573e-08    -6.941    -7.067    -0.126      0.00
   OH-             8.755e-08   5.176e-08    -7.058    -7.286    -0.228     -2.64
   H2O             5.551e+01   9.847e-01     1.744    -0.007     0.000     18.03
Ba            3.004e-01
   Ba+2            3.004e-01   5.384e-02    -0.522    -1.269    -0.747    -11.44
   BaOH+           2.691e-08   2.096e-08    -7.570    -7.679    -0.109     (0)  
Cl            6.008e-01
   Cl-             6.008e-01   3.664e-01    -0.221    -0.436    -0.215     18.44
H(0)          0.000e+00
   H2              0.000e+00   0.000e+00   -40.778   -40.688     0.090     20.00
O(0)          7.136e-15
   O2              3.568e-15   4.391e-15   -14.448   -14.357     0.090     35.00

------------------------------Saturation indices-------------------------------

	Phase               SI   log IAP   log K(288 K,   1 atm)

	H2(g)           -37.61    -40.69   -3.07  H2
	H2O(g)           -1.78     -0.01    1.77  H2O
	O2(g)           -11.55    -14.36   -2.81  O2


Reaction step 12.

Using solution 1.	
Using temperature 1.	
Using pressure 1.	
Using reaction 1.	

Reaction 1.	

	  4.064e-01 moles of the following reaction have been added:

	                 Relative
	Reactant            moles

	BaCl2                1.00000

	                 Relative
	Element             moles
	Ba                   1.00000
	Cl                   2.00000

-----------------------------Solution composition------------------------------

	Elements           Molality       Moles

	Ba                4.064e-01   4.064e-01
	Cl                8.128e-01   8.128e-01

----------------------------Description of solution----------------------------

                                       pH  =   7.057      Charge balance
                                       pe  =  11.743      Adjusted to redox equilibrium
       Specific Conductance (uS/cm, 15 oC) = 42120
                          Density (g/cm3)  =   1.07225
                        Activity of water  =   0.979
                           Ionic strength  =   1.219e+00
                       Mass of water (kg)  =   1.000e+00
                 Total alkalinity (eq/kg)  =   2.837e-17
                    Total carbon (mol/kg)  =   0.000e+00
                       Total CO2 (mol/kg)  =   0.000e+00
                      Temperature (deg C)  =  15.00
                  Electrical balance (eq)  =   9.659e-13
 Percent error, 100*(Cat-|An|)/(Cat+|An|)  =   0.00
                               Iterations  =  12
                                  Total H  = 1.110124e+02
                                  Total O  = 5.550622e+01

----------------------------Distribution of species----------------------------

                                            Log       Log         Log     mole V
   Species          Molality    Activity  Molality  Activity     Gamma   cm3/mol

   H+              1.184e-07   8.768e-08    -6.927    -7.057    -0.130      0.00
   OH-             8.842e-08   5.033e-08    -7.053    -7.298    -0.245     -2.19
   H2O             5.551e+01   9.793e-01     1.744    -0.009     0.000     18.03
Ba            4.064e-01
   Ba+2            4.064e-01   6.591e-02    -0.391    -1.181    -0.790    -11.12
   BaOH+           2.997e-08   2.494e-08    -7.523    -7.603    -0.080     (0)  
Cl            8.128e-01
   Cl-             8.128e-01   4.825e-01    -0.090    -0.316    -0.226     18.60
H(0)          0.000e+00
   H2              0.000e+00   0.000e+00   -40.826   -40.705     0.122     20.00
O(0)          7.091e-15
   O2              3.546e-15   4.695e-15   -14.450   -14.328     0.122     35.00

------------------------------Saturation indices-------------------------------

	Phase               SI   log IAP   log K(288 K,   1 atm)

	H2(g)           -37.63    -40.70   -3.07  H2
	H2O(g)           -1.78     -0.01    1.77  H2O
	O2(g)           -11.52    -14.33   -2.81  O2


Reaction step 13.

Using solution 1.	
Using temperature 1.	
Using pressure 1.	
Using reaction 1.	

Reaction 1.	

	  5.000e-01 moles of the following reaction have been added:

	                 Relative
	Reactant            moles

	BaCl2                1.00000

	                 Relative
	Element             moles
	Ba                   1.00000
	Cl                   2.00000

-----------------------------Solution composition------------------------------

	Elements           Molality       Moles

	Ba                5.000e-01   5.000e-01
	Cl                1.000e+00   1.000e+00

----------------------------Description of solution----------------------------

                                       pH  =   7.051      Charge balance
                                       pe  =  11.758      Adjusted to redox equilibrium
       Specific Conductance (uS/cm, 15 oC) = 46620
                          Density (g/cm3)  =   1.08861
                        Activity of water  =   0.974
                           Ionic strength  =   1.500e+00
                       Mass of water (kg)  =   1.000e+00
                 Total alkalinity (eq/kg)  =  -1.502e-16
                    Total carbon (mol/kg)  =   0.000e+00
                       Total CO2 (mol/kg)  =   0.000e+00
                      Temperature (deg C)  =  15.00
                  Electrical balance (eq)  =   2.986e-12
 Percent error, 100*(Cat-|An|)/(Cat+|An|)  =   0.00
                               Iterations  =  12
                                  Total H  = 1.110124e+02
                                  Total O  = 5.550622e+01

----------------------------Distribution of species----------------------------

                                            Log       Log         Log     mole V
   Species          Molality    Activity  Molality  Activity     Gamma   cm3/mol

   H+              1.208e-07   8.883e-08    -6.918    -7.051    -0.133      0.00
   OH-             8.911e-08   4.943e-08    -7.050    -7.306    -0.256     -1.81
   H2O             5.551e+01   9.745e-01     1.744    -0.011     0.000     18.03
Ba            5.000e-01
   Ba+2            5.000e-01   7.590e-02    -0.301    -1.120    -0.819    -10.87
   BaOH+           3.169e-08   2.821e-08    -7.499    -7.550    -0.050     (0)  
Cl            1.000e+00
   Cl-             1.000e+00   5.843e-01     0.000    -0.233    -0.233     18.74
H(0)          0.000e+00
   H2              0.000e+00   0.000e+00   -40.873   -40.723     0.150     20.00
O(0)          7.182e-15
   O2              3.591e-15   5.072e-15   -14.445   -14.295     0.150     35.00

------------------------------Saturation indices-------------------------------

	Phase               SI   log IAP   log K(288 K,   1 atm)

	H2(g)           -37.65    -40.72   -3.07  H2
	H2O(g)           -1.78     -0.01    1.77  H2O
	O2(g)           -11.48    -14.29   -2.81  O2


Reaction step 14.

Using solution 1.	
Using temperature 1.	
Using pressure 1.	
Using reaction 1.	

Reaction 1.	

	  5.878e-01 moles of the following reaction have been added:

	                 Relative
	Reactant            moles

	BaCl2                1.00000

	                 Relative
	Element             moles
	Ba                   1.00000
	Cl                   2.00000

-----------------------------Solution composition------------------------------

	Elements           Molality       Moles

	Ba                5.878e-01   5.878e-01
	Cl                1.176e+00   1.176e+00

----------------------------Description of solution----------------------------

                                       pH  =   7.048      Charge balance
                                       pe  =  11.766      Adjusted to redox equilibrium
       Specific Conductance (uS/cm, 15 oC) = 50106
                          Density (g/cm3)  =   1.10380
                        Activity of water  =   0.970
                           Ionic strength  =   1.763e+00
                       Mass of water (kg)  =   1.000e+00
                 Total alkalinity (eq/kg)  =   1.785e-16
                    Total carbon (mol/kg)  =   0.000e+00
                       Total CO2 (mol/kg)  =   0.000e+00
                      Temperature (deg C)  =  15.00
                  Electrical balance (eq)  =   7.027e-12
 Percent error, 100*(Cat-|An|)/(Cat+|An|)  =   0.00
                               Iterations  =  12
                                  Total H  = 1.110124e+02
                                  Total O  = 5.550622e+01

----------------------------Distribution of species----------------------------

                                            Log       Log         Log     mole V
   Species          Molality    Activity  Molality  Activity     Gamma   cm3/mol

   H+              1.224e-07   8.955e-08    -6.912    -7.048    -0.136      0.00
   OH-             8.974e-08   4.881e-08    -7.047    -7.311    -0.264     -1.46
   H2O             5.551e+01   9.700e-01     1.744    -0.013     0.000     18.03
Ba            5.878e-01
   Ba+2            5.878e-01   8.487e-02    -0.231    -1.071    -0.840    -10.65
   BaOH+           3.268e-08   3.115e-08    -7.486    -7.507    -0.021     (0)  
Cl            1.176e+00
   Cl-             1.176e+00   6.796e-01     0.070    -0.168    -0.238     18.85
H(0)          0.000e+00
   H2              0.000e+00   0.000e+00   -40.910   -40.734     0.176     20.00
O(0)          7.017e-15
   O2              3.508e-15   5.265e-15   -14.455   -14.279     0.176     35.00

------------------------------Saturation indices-------------------------------

	Phase               SI   log IAP   log K(288 K,   1 atm)

	H2(g)           -37.66    -40.73   -3.07  H2
	H2O(g)           -1.78     -0.01    1.77  H2O
	O2(g)           -11.47    -14.28   -2.81  O2


Reaction step 15.

Using solution 1.	
Using temperature 1.	
Using pressure 1.	
Using reaction 1.	

Reaction 1.	

	  7.000e-01 moles of the following reaction have been added:

	                 Relative
	Reactant            moles

	BaCl2                1.00000

	                 Relative
	Element             moles
	Ba                   1.00000
	Cl                   2.00000

-----------------------------Solution composition------------------------------

	Elements           Molality       Moles

	Ba                7.000e-01   7.000e-01
	Cl                1.400e+00   1.400e+00

----------------------------Description of solution----------------------------

                                       pH  =   7.045      Charge balance
                                       pe  =  11.780      Adjusted to redox equilibrium
       Specific Conductance (uS/cm, 15 oC) = 53795
                          Density (g/cm3)  =   1.12301
                        Activity of water  =   0.964
                           Ionic strength  =   2.100e+00
                       Mass of water (kg)  =   1.000e+00
                 Total alkalinity (eq/kg)  =   1.347e-17
                    Total carbon (mol/kg)  =   0.000e+00
                       Total CO2 (mol/kg)  =   0.000e+00
                      Temperature (deg C)  =  15.00
                  Electrical balance (eq)  =   5.745e-16
 Percent error, 100*(Cat-|An|)/(Cat+|An|)  =   0.00
                               Iterations  =  13
                                  Total H  = 1.110124e+02
                                  Total O  = 5.550622e+01

----------------------------Distribution of species----------------------------

                                            Log       Log         Log     mole V
   Species          Molality    Activity  Molality  Activity     Gamma   cm3/mol

   H+              1.238e-07   9.009e-08    -6.907    -7.045    -0.138      0.00
   OH-             9.054e-08   4.823e-08    -7.043    -7.317    -0.274     -1.02
   H2O             5.551e+01   9.643e-01     1.744    -0.016     0.000     18.03
Ba            7.000e-01
   Ba+2            7.000e-01   9.590e-02    -0.155    -1.018    -0.863    -10.39
   BaOH+           3.328e-08   3.478e-08    -7.478    -7.459     0.019     (0)  
Cl            1.400e+00
   Cl-             1.400e+00   8.019e-01     0.146    -0.096    -0.242     18.99
H(0)          0.000e+00
   H2              0.000e+00   0.000e+00   -40.966   -40.756     0.210     20.00
O(0)          7.099e-15
   O2              3.550e-15   5.757e-15   -14.450   -14.240     0.210     35.00

------------------------------Saturation indices-------------------------------

	Phase               SI   log IAP   log K(288 K,   1 atm)

	H2(g)           -37.68    -40.76   -3.07  H2
	H2O(g)           -1.79     -0.02    1.77  H2O
	O2(g)           -11.43    -14.24   -2.81  O2


Reaction step 16.

Using solution 1.	
Using temperature 1.	
Using pressure 1.	
Using reaction 1.	

Reaction 1.	

	  9.921e-01 moles of the following reaction have been added:

	                 Relative
	Reactant            moles

	BaCl2                1.00000

	                 Relative
	Element             moles
	Ba                   1.00000
	Cl                   2.00000

-----------------------------Solution composition------------------------------

	Elements           Molality       Moles

	Ba                9.921e-01   9.921e-01
	Cl                1.984e+00   1.984e+00

----------------------------Description of solution----------------------------

                                       pH  =   7.045      Charge balance
                                       pe  =  11.806      Adjusted to redox equilibrium
       Specific Conductance (uS/cm, 15 oC) = 60850
                          Density (g/cm3)  =   1.17193
                        Activity of water  =   0.949
                           Ionic strength  =   2.976e+00
                       Mass of water (kg)  =   1.000e+00
                 Total alkalinity (eq/kg)  =  -4.765e-17
                    Total carbon (mol/kg)  =   0.000e+00
                       Total CO2 (mol/kg)  =   0.000e+00
                      Temperature (deg C)  =  15.00
                  Electrical balance (eq)  =   1.245e-10
 Percent error, 100*(Cat-|An|)/(Cat+|An|)  =   0.00
                               Iterations  =  12
                                  Total H  = 1.110124e+02
                                  Total O  = 5.550622e+01

----------------------------Distribution of species----------------------------

                                            Log       Log         Log     mole V
   Species          Molality    Activity  Molality  Activity     Gamma   cm3/mol

   H+              1.252e-07   9.020e-08    -6.902    -7.045    -0.142      0.00
   OH-             9.270e-08   4.743e-08    -7.033    -7.324    -0.291      0.09
   H2O             5.551e+01   9.494e-01     1.744    -0.023     0.000     18.03
Ba            9.921e-01
   Ba+2            9.921e-01   1.231e-01    -0.003    -0.910    -0.906     -9.79
   BaOH+           3.252e-08   4.390e-08    -7.488    -7.358     0.130     (0)  
Cl            1.984e+00
   Cl-             1.984e+00   1.125e+00     0.298     0.051    -0.246     19.32
H(0)          0.000e+00
   H2              0.000e+00   0.000e+00   -41.105   -40.807     0.298     20.00
O(0)          7.130e-15
   O2              3.565e-15   7.075e-15   -14.448   -14.150     0.298     35.00

------------------------------Saturation indices-------------------------------

	Phase               SI   log IAP   log K(288 K,   1 atm)

	H2(g)           -37.73    -40.81   -3.07  H2
	H2O(g)           -1.79     -0.02    1.77  H2O
	O2(g)           -11.34    -14.15   -2.81  O2


Reaction step 17.

Using solution 1.	
Using temperature 1.	
Using pressure 1.	
Using reaction 1.	

Reaction 1.	

	  1.000e+00 moles of the following reaction have been added:

	                 Relative
	Reactant            moles

	BaCl2                1.00000

	                 Relative
	Element             moles
	Ba                   1.00000
	Cl                   2.00000

-----------------------------Solution composition------------------------------

	Elements           Molality       Moles

	Ba                1.000e+00   1.000e+00
	Cl                2.000e+00   2.000e+00

----------------------------Description of solution----------------------------

                                       pH  =   7.045      Charge balance
                                       pe  =  11.806      Adjusted to redox equilibrium
       Specific Conductance (uS/cm, 15 oC) = 61006
                          Density (g/cm3)  =   1.17324
                        Activity of water  =   0.949
                           Ionic strength  =   3.000e+00
                       Mass of water (kg)  =   1.000e+00
                 Total alkalinity (eq/kg)  =   8.786e-17
                    Total carbon (mol/kg)  =   0.000e+00
                       Total CO2 (mol/kg)  =   0.000e+00
                      Temperature (deg C)  =  15.00
                  Electrical balance (eq)  =   1.073e-10
 Percent error, 100*(Cat-|An|)/(Cat+|An|)  =   0.00
                               Iterations  =  12
                                  Total H  = 1.110124e+02
                                  Total O  = 5.550622e+01

----------------------------Distribution of species----------------------------

                                            Log       Log         Log     mole V
   Species          Molality    Activity  Molality  Activity     Gamma   cm3/mol

   H+              1.252e-07   9.019e-08    -6.902    -7.045    -0.143      0.00
   OH-             9.276e-08   4.742e-08    -7.033    -7.324    -0.291      0.12
   H2O             5.551e+01   9.490e-01     1.744    -0.023     0.000     18.03
Ba            1.000e+00
   Ba+2            1.000e+00   1.238e-01    -0.000    -0.907    -0.907     -9.77
   BaOH+           3.246e-08   4.414e-08    -7.489    -7.355     0.133     (0)  
Cl            2.000e+00
   Cl-             2.000e+00   1.134e+00     0.301     0.055    -0.246     19.33
H(0)          0.000e+00
   H2              0.000e+00   0.000e+00   -41.106   -40.806     0.300     20.00
O(0)          7.064e-15
   O2              3.532e-15   7.047e-15   -14.452   -14.152     0.300     35.00

------------------------------Saturation indices-------------------------------

	Phase               SI   log IAP   log K(288 K,   1 atm)

	H2(g)           -37.73    -40.81   -3.07  H2
	H2O(g)           -1.79     -0.02    1.77  H2O
	O2(g)           -11.34    -14.15   -2.81  O2


Reaction step 18.

Using solution 1.	
Using temperature 1.	
Using pressure 1.	
Using reaction 1.	

Reaction 1.	

	  1.200e+00 moles of the following reaction have been added:

	                 Relative
	Reactant            moles

	BaCl2                1.00000

	                 Relative
	Element             moles
	Ba                   1.00000
	Cl                   2.00000

-----------------------------Solution composition------------------------------

	Elements           Molality       Moles

	Ba                1.200e+00   1.200e+00
	Cl                2.400e+00   2.400e+00

----------------------------Description of solution----------------------------

                                       pH  =   7.048      Charge balance
                                       pe  =  11.822      Adjusted to redox equilibrium
       Specific Conductance (uS/cm, 15 oC) = 64605
                          Density (g/cm3)  =   1.20580
                        Activity of water  =   0.939
                           Ionic strength  =   3.600e+00
                       Mass of water (kg)  =   1.000e+00
                 Total alkalinity (eq/kg)  =  -1.518e-16
                    Total carbon (mol/kg)  =   0.000e+00
                       Total CO2 (mol/kg)  =   0.000e+00
                      Temperature (deg C)  =  15.00
                  Electrical balance (eq)  =   2.088e-12
 Percent error, 100*(Cat-|An|)/(Cat+|An|)  =   0.00
                               Iterations  =  12
                                  Total H  = 1.110124e+02
                                  Total O  = 5.550622e+01

----------------------------Distribution of species----------------------------

                                            Log       Log         Log     mole V
   Species          Molality    Activity  Molality  Activity     Gamma   cm3/mol

   H+              1.250e-07   8.960e-08    -6.903    -7.048    -0.145      0.00
   OH-             9.425e-08   4.722e-08    -7.026    -7.326    -0.300      0.86
   H2O             5.551e+01   9.388e-01     1.744    -0.027     0.000     18.03
Ba            1.200e+00
   Ba+2            1.200e+00   1.415e-01     0.079    -0.849    -0.928     -9.40
   BaOH+           3.075e-08   5.025e-08    -7.512    -7.299     0.213     (0)  
Cl            2.400e+00
   Cl-             2.400e+00   1.362e+00     0.380     0.134    -0.246     19.54
H(0)          0.000e+00
   H2              0.000e+00   0.000e+00   -41.205   -40.845     0.360     20.00
O(0)          7.181e-15
   O2              3.591e-15   8.226e-15   -14.445   -14.085     0.360     35.00

------------------------------Saturation indices-------------------------------

	Phase               SI   log IAP   log K(288 K,   1 atm)

	H2(g)           -37.77    -40.84   -3.07  H2
	H2O(g)           -1.80     -0.03    1.77  H2O
	O2(g)           -11.27    -14.08   -2.81  O2


Reaction step 19.

Using solution 1.	
Using temperature 1.	
Using pressure 1.	
Using reaction 1.	

Reaction 1.	

	  1.224e+00 moles of the following reaction have been added:

	                 Relative
	Reactant            moles

	BaCl2                1.00000

	                 Relative
	Element             moles
	Ba                   1.00000
	Cl                   2.00000

-----------------------------Solution composition------------------------------

	Elements           Molality       Moles

	Ba                1.224e+00   1.224e+00
	Cl                2.449e+00   2.449e+00

----------------------------Description of solution----------------------------

                                       pH  =   7.048      Charge balance
                                       pe  =  11.823      Adjusted to redox equilibrium
       Specific Conductance (uS/cm, 15 oC) = 65005
                          Density (g/cm3)  =   1.20971
                        Activity of water  =   0.938
                           Ionic strength  =   3.673e+00
                       Mass of water (kg)  =   1.000e+00
                 Total alkalinity (eq/kg)  =  -1.023e-16
                    Total carbon (mol/kg)  =   0.000e+00
                       Total CO2 (mol/kg)  =   0.000e+00
                      Temperature (deg C)  =  15.00
                  Electrical balance (eq)  =   1.257e-12
 Percent error, 100*(Cat-|An|)/(Cat+|An|)  =   0.00
                               Iterations  =  12
                                  Total H  = 1.110124e+02
                                  Total O  = 5.550622e+01

----------------------------Distribution of species----------------------------

                                            Log       Log         Log     mole V
   Species          Molality    Activity  Molality  Activity     Gamma   cm3/mol

   H+              1.249e-07   8.950e-08    -6.903    -7.048    -0.145      0.00
   OH-             9.443e-08   4.720e-08    -7.025    -7.326    -0.301      0.94
   H2O             5.551e+01   9.376e-01     1.744    -0.028     0.000     18.03
Ba            1.224e+00
   Ba+2            1.224e+00   1.436e-01     0.088    -0.843    -0.931     -9.35
   BaOH+           3.050e-08   5.098e-08    -7.516    -7.293     0.223     (0)  
Cl            2.449e+00
   Cl-             2.449e+00   1.390e+00     0.389     0.143    -0.246     19.56
H(0)          0.000e+00
   H2              0.000e+00   0.000e+00   -41.216   -40.848     0.367     20.00
O(0)          7.161e-15
   O2              3.580e-15   8.341e-15   -14.446   -14.079     0.367     35.00

------------------------------Saturation indices-------------------------------

	Phase               SI   log IAP   log K(288 K,   1 atm)

	H2(g)           -37.78    -40.85   -3.07  H2
	H2O(g)           -1.80     -0.03    1.77  H2O
	O2(g)           -11.27    -14.08   -2.81  O2


Reaction step 20.

Using solution 1.	
Using temperature 1.	
Using pressure 1.	
Using reaction 1.	

Reaction 1.	

	  1.500e+00 moles of the following reaction have been added:

	                 Relative
	Reactant            moles

	BaCl2                1.00000

	                 Relative
	Element             moles
	Ba                   1.00000
	Cl                   2.00000

-----------------------------Solution composition------------------------------

	Elements           Molality       Moles

	Ba                1.500e+00   1.500e+00
	Cl                3.000e+00   3.000e+00

----------------------------Description of solution----------------------------

                                       pH  =   7.054      Charge balance
                                       pe  =  11.838      Adjusted to redox equilibrium
       Specific Conductance (uS/cm, 15 oC) = 69220
                          Density (g/cm3)  =   1.25330
                        Activity of water  =   0.923
                           Ionic strength  =   4.500e+00
                       Mass of water (kg)  =   1.000e+00
                 Total alkalinity (eq/kg)  =   3.455e-16
                    Total carbon (mol/kg)  =   0.000e+00
                       Total CO2 (mol/kg)  =   0.000e+00
                      Temperature (deg C)  =  15.00
                  Electrical balance (eq)  =   3.034e-15
 Percent error, 100*(Cat-|An|)/(Cat+|An|)  =   0.00
                               Iterations  =  12
                                  Total H  = 1.110124e+02
                                  Total O  = 5.550622e+01

----------------------------Distribution of species----------------------------

                                            Log       Log         Log     mole V
   Species          Molality    Activity  Molality  Activity     Gamma   cm3/mol

   H+              1.238e-07   8.823e-08    -6.907    -7.054    -0.147      0.00
   OH-             9.642e-08   4.717e-08    -7.016    -7.326    -0.311      1.94
   H2O             5.551e+01   9.235e-01     1.744    -0.035     0.000     18.03
Ba            1.500e+00
   Ba+2            1.500e+00   1.672e-01     0.176    -0.777    -0.953     -8.87
   BaOH+           2.733e-08   5.930e-08    -7.563    -7.227     0.336     (0)  
Cl            3.000e+00
   Cl-             3.000e+00   1.714e+00     0.477     0.234    -0.243     19.83
H(0)          0.000e+00
   H2              0.000e+00   0.000e+00   -41.339   -40.889     0.450     20.00
O(0)          6.933e-15
   O2              3.467e-15   9.770e-15   -14.460   -14.010     0.450     35.00

------------------------------Saturation indices-------------------------------

	Phase               SI   log IAP   log K(288 K,   1 atm)

	H2(g)           -37.82    -40.89   -3.07  H2
	H2O(g)           -1.80     -0.03    1.77  H2O
	O2(g)           -11.20    -14.01   -2.81  O2


Reaction step 21.

Using solution 1.	
Using temperature 1.	
Using pressure 1.	
Using reaction 1.	

Reaction 1.	

	  1.586e+00 moles of the following reaction have been added:

	                 Relative
	Reactant            moles

	BaCl2                1.00000

	                 Relative
	Element             moles
	Ba                   1.00000
	Cl                   2.00000

-----------------------------Solution composition------------------------------

	Elements           Molality       Moles

	Ba                1.586e+00   1.586e+00
	Cl                3.172e+00   3.172e+00

----------------------------Description of solution----------------------------

                                       pH  =   7.057      Charge balance
                                       pe  =  11.844      Adjusted to redox equilibrium
       Specific Conductance (uS/cm, 15 oC) = 70468
                          Density (g/cm3)  =   1.26659
                        Activity of water  =   0.919
                           Ionic strength  =   4.757e+00
                       Mass of water (kg)  =   1.000e+00
                 Total alkalinity (eq/kg)  =   1.626e-16
                    Total carbon (mol/kg)  =   0.000e+00
                       Total CO2 (mol/kg)  =   0.000e+00
                      Temperature (deg C)  =  15.00
                  Electrical balance (eq)  =  -4.067e-16
 Percent error, 100*(Cat-|An|)/(Cat+|An|)  =  -0.00
                               Iterations  =  12
                                  Total H  = 1.110124e+02
                                  Total O  = 5.550622e+01

----------------------------Distribution of species----------------------------

                                            Log       Log         Log     mole V
   Species          Molality    Activity  Molality  Activity     Gamma   cm3/mol

   H+              1.233e-07   8.778e-08    -6.909    -7.057    -0.148      0.00
   OH-             9.702e-08   4.719e-08    -7.013    -7.326    -0.313      2.25
   H2O             5.551e+01   9.191e-01     1.744    -0.037     0.000     18.03
Ba            1.586e+00
   Ba+2            1.586e+00   1.744e-01     0.200    -0.759    -0.959     -8.73
   BaOH+           2.627e-08   6.187e-08    -7.581    -7.209     0.372     (0)  
Cl            3.172e+00
   Cl-             3.172e+00   1.818e+00     0.501     0.260    -0.242     19.91
H(0)          0.000e+00
   H2              0.000e+00   0.000e+00   -41.383   -40.907     0.476     20.00
O(0)          7.025e-15
   O2              3.512e-15   1.050e-14   -14.454   -13.979     0.476     35.00

------------------------------Saturation indices-------------------------------

	Phase               SI   log IAP   log K(288 K,   1 atm)

	H2(g)           -37.83    -40.91   -3.07  H2
	H2O(g)           -1.81     -0.04    1.77  H2O
	O2(g)           -11.17    -13.98   -2.81  O2


------------------
End of simulation.
------------------

------------------------------------
Reading input data for simulation 3.
------------------------------------

	USE solution 1
	REACTION_TEMPERATURE
	 25.000000
	REACTION_PRESSURE
	 1.000000
	REACTION
	 BaCl2 1
	0 0.003880 0.009300 0.015620 0.027360 0.029500 0.038790 0.050000 0.050100 0.072600 0.078810 0.099800 0.100000 0.149400 0.156900 0.166667 0.200000 0.236470 0.300400 0.316140 0.333333 0.386880 0.406400 0.500000 0.504000 0.587800 0.700000 0.787700 0.831700 0.833333 0.992100 1.000000 1.200000 1.224300 1.253800 1.500000 1.500000 1.503000 1.585800 1.622600
	USER_GRAPH
	 -headings 25.oC
	10 data 0, 23.468045, 22.557733, 23.894426, 24.569435, 24.416802, 24.868136, 25.242099, 24.929573, 25.401255, 25.441698, 25.410838, 27.047115, 25.814888, 26.102926, 26.170699, 26.332243, 26.907893, 27.130840, 27.354525, 27.331509, 27.739107, 27.519066, 28.397786, 29.657731, 28.484175, 30.135384, 29.206810, 30.447445, 29.371041, 29.955730, 30.780148, 31.437404, 30.674231, 31.567360, 32.960994, 31.590919, 32.246795, 31.833738, 32.553137,
	20 dim d(40)
	30 read d(1), d(2), d(3), d(4), d(5), d(6), d(7), d(8), d(9), d(10), d(11), d(12), d(13), d(14), d(15), d(16), d(17), d(18), d(19), d(20), d(21), d(22), d(23), d(24), d(25), d(26), d(27), d(28), d(29), d(30), d(31), d(32), d(33), d(34), d(35), d(36), d(37), d(38), d(39), d(40),
	40 if step_no = 1 then put(rho, 10)
	50 if step_no > 1 then Vm = (1e3 + tot("Ba") * 208.246) / (tot("Ba") * rho) - 1e3 / (tot("Ba") * get(10))
	60 if step_no = 1 then dif = 0 else dif = Vm - d(step_no)
	62 if step_no = 1 then goto 90
	70 plot_xy tot("Ba"), d(step_no), line_w = 0, color = Red #aph_x tot("Ba") # dif, str$(tc), str$(pressure), str$(step_no + get(1))
	80 plot_xy tot("Ba"), Vm, symbol = None, color = Red #step_no = 264 then put(step_no + get(1), 1)
	90 end
	END
-----------------------------------------
Beginning of batch-reaction calculations.
-----------------------------------------

Reaction step 1.

Using solution 1.	
Using temperature 1.	
Using pressure 1.	
Using reaction 1.	

Reaction 1.	

	  0.000e+00 moles of the following reaction have been added:

	                 Relative
	Reactant            moles

	BaCl2                1.00000

	                 Relative
	Element             moles
	Ba                   1.00000
	Cl                   2.00000

-----------------------------Solution composition------------------------------

	Elements           Molality       Moles

	Pure water     

----------------------------Description of solution----------------------------

                                       pH  =   6.997      Charge balance
                                       pe  =  11.302      Adjusted to redox equilibrium
       Specific Conductance (uS/cm, 25 oC) = 0
                          Density (g/cm3)  =   0.99700
                        Activity of water  =   1.000
                           Ionic strength  =   1.008e-07
                       Mass of water (kg)  =   1.000e+00
                 Total alkalinity (eq/kg)  =   3.541e-17
                    Total carbon (mol/kg)  =   0.000e+00
                       Total CO2 (mol/kg)  =   0.000e+00
                      Temperature (deg C)  =  25.00
                  Electrical balance (eq)  =  -3.541e-17
 Percent error, 100*(Cat-|An|)/(Cat+|An|)  =  -0.00
                               Iterations  =  10
                                  Total H  = 1.110124e+02
                                  Total O  = 5.550622e+01

----------------------------Distribution of species----------------------------

                                            Log       Log         Log     mole V
   Species          Molality    Activity  Molality  Activity     Gamma   cm3/mol

   OH-             1.008e-07   1.008e-07    -6.997    -6.997    -0.000     -3.76
   H+              1.008e-07   1.008e-07    -6.997    -6.997    -0.000      0.00
   H2O             5.551e+01   1.000e+00     1.744    -0.000     0.000     18.07
H(0)          3.579e-40
   H2              1.790e-40   1.790e-40   -39.747   -39.747     0.000     20.00
O(0)          2.603e-13
   O2              1.302e-13   1.302e-13   -12.886   -12.886     0.000     35.00

------------------------------Saturation indices-------------------------------

	Phase               SI   log IAP   log K(298 K,   1 atm)

	H2(g)           -36.65    -39.75   -3.10  H2
	H2O(g)           -1.50     -0.00    1.50  H2O
	O2(g)            -9.99    -12.89   -2.89  O2


Reaction step 2.

Using solution 1.	
Using temperature 1.	
Using pressure 1.	
Using reaction 1.	

Reaction 1.	

	  3.880e-03 moles of the following reaction have been added:

	                 Relative
	Reactant            moles

	BaCl2                1.00000

	                 Relative
	Element             moles
	Ba                   1.00000
	Cl                   2.00000

-----------------------------Solution composition------------------------------

	Elements           Molality       Moles

	Ba                3.880e-03   3.880e-03
	Cl                7.760e-03   7.760e-03

----------------------------Description of solution----------------------------

                                       pH  =   6.991      Charge balance
                                       pe  =  11.311      Adjusted to redox equilibrium
       Specific Conductance (uS/cm, 25 oC) = 964
                          Density (g/cm3)  =   0.99772
                        Activity of water  =   1.000
                           Ionic strength  =   1.164e-02
                       Mass of water (kg)  =   1.000e+00
                 Total alkalinity (eq/kg)  =   3.560e-17
                    Total carbon (mol/kg)  =   0.000e+00
                       Total CO2 (mol/kg)  =   0.000e+00
                      Temperature (deg C)  =  25.00
                  Electrical balance (eq)  =  -3.373e-17
 Percent error, 100*(Cat-|An|)/(Cat+|An|)  =  -0.00
                               Iterations  =  10
                                  Total H  = 1.110124e+02
                                  Total O  = 5.550622e+01

----------------------------Distribution of species----------------------------

                                            Log       Log         Log     mole V
   Species          Molality    Activity  Molality  Activity     Gamma   cm3/mol

   H+              1.123e-07   1.020e-07    -6.950    -6.991    -0.042      0.00
   OH-             1.114e-07   9.951e-08    -6.953    -7.002    -0.049     -3.65
   H2O             5.551e+01   9.998e-01     1.744    -0.000     0.000     18.07
Ba            3.880e-03
   Ba+2            3.880e-03   2.523e-03    -2.411    -2.598    -0.187    -13.09
   BaOH+           9.353e-10   8.376e-10    -9.029    -9.077    -0.048     (0)  
Cl            7.760e-03
   Cl-             7.760e-03   6.936e-03    -2.110    -2.159    -0.049     18.18
H(0)          3.515e-40
   H2              1.758e-40   1.762e-40   -39.755   -39.754     0.001     20.00
O(0)          2.676e-13
   O2              1.338e-13   1.342e-13   -12.873   -12.872     0.001     35.00

------------------------------Saturation indices-------------------------------

	Phase               SI   log IAP   log K(298 K,   1 atm)

	H2(g)           -36.65    -39.75   -3.10  H2
	H2O(g)           -1.50     -0.00    1.50  H2O
	O2(g)            -9.98    -12.87   -2.89  O2


Reaction step 3.

Using solution 1.	
Using temperature 1.	
Using pressure 1.	
Using reaction 1.	

Reaction 1.	

	  9.300e-03 moles of the following reaction have been added:

	                 Relative
	Reactant            moles

	BaCl2                1.00000

	                 Relative
	Element             moles
	Ba                   1.00000
	Cl                   2.00000

-----------------------------Solution composition------------------------------

	Elements           Molality       Moles

	Ba                9.300e-03   9.300e-03
	Cl                1.860e-02   1.860e-02

----------------------------Description of solution----------------------------

                                       pH  =   6.986      Charge balance
                                       pe  =  11.321      Adjusted to redox equilibrium
       Specific Conductance (uS/cm, 25 oC) = 2197
                          Density (g/cm3)  =   0.99871
                        Activity of water  =   1.000
                           Ionic strength  =   2.790e-02
                       Mass of water (kg)  =   1.000e+00
                 Total alkalinity (eq/kg)  =   3.379e-17
                    Total carbon (mol/kg)  =   0.000e+00
                       Total CO2 (mol/kg)  =   0.000e+00
                      Temperature (deg C)  =  25.00
                  Electrical balance (eq)  =  -4.114e-17
 Percent error, 100*(Cat-|An|)/(Cat+|An|)  =  -0.00
                               Iterations  =  10
                                  Total H  = 1.110124e+02
                                  Total O  = 5.550622e+01

----------------------------Distribution of species----------------------------

                                            Log       Log         Log     mole V
   Species          Molality    Activity  Molality  Activity     Gamma   cm3/mol

   H+              1.178e-07   1.033e-07    -6.929    -6.986    -0.057      0.00
   OH-             1.158e-07   9.827e-08    -6.936    -7.008    -0.071     -3.58
   H2O             5.551e+01   9.995e-01     1.744    -0.000     0.000     18.07
Ba            9.300e-03
   Ba+2            9.300e-03   5.024e-03    -2.032    -2.299    -0.267    -12.90
   BaOH+           1.930e-09   1.648e-09    -8.714    -8.783    -0.069     (0)  
Cl            1.860e-02
   Cl-             1.860e-02   1.579e-02    -1.730    -1.802    -0.071     18.23
H(0)          3.429e-40
   H2              1.715e-40   1.726e-40   -39.766   -39.763     0.003     20.00
O(0)          2.779e-13
   O2              1.390e-13   1.399e-13   -12.857   -12.854     0.003     35.00

------------------------------Saturation indices-------------------------------

	Phase               SI   log IAP   log K(298 K,   1 atm)

	H2(g)           -36.66    -39.76   -3.10  H2
	H2O(g)           -1.50     -0.00    1.50  H2O
	O2(g)            -9.96    -12.85   -2.89  O2


Reaction step 4.

Using solution 1.	
Using temperature 1.	
Using pressure 1.	
Using reaction 1.	

Reaction 1.	

	  1.562e-02 moles of the following reaction have been added:

	                 Relative
	Reactant            moles

	BaCl2                1.00000

	                 Relative
	Element             moles
	Ba                   1.00000
	Cl                   2.00000

-----------------------------Solution composition------------------------------

	Elements           Molality       Moles

	Ba                1.562e-02   1.562e-02
	Cl                3.124e-02   3.124e-02

----------------------------Description of solution----------------------------

                                       pH  =   6.981      Charge balance
                                       pe  =  11.330      Adjusted to redox equilibrium
       Specific Conductance (uS/cm, 25 oC) = 3557
                          Density (g/cm3)  =   0.99987
                        Activity of water  =   0.999
                           Ionic strength  =   4.686e-02
                       Mass of water (kg)  =   1.000e+00
                 Total alkalinity (eq/kg)  =   3.864e-17
                    Total carbon (mol/kg)  =   0.000e+00
                       Total CO2 (mol/kg)  =   0.000e+00
                      Temperature (deg C)  =  25.00
                  Electrical balance (eq)  =  -3.175e-17
 Percent error, 100*(Cat-|An|)/(Cat+|An|)  =  -0.00
                               Iterations  =  10
                                  Total H  = 1.110124e+02
                                  Total O  = 5.550622e+01

----------------------------Distribution of species----------------------------

                                            Log       Log         Log     mole V
   Species          Molality    Activity  Molality  Activity     Gamma   cm3/mol

   H+              1.220e-07   1.045e-07    -6.914    -6.981    -0.067      0.00
   OH-             1.191e-07   9.714e-08    -6.924    -7.013    -0.088     -3.52
   H2O             5.551e+01   9.992e-01     1.744    -0.000     0.000     18.07
Ba            1.562e-02
   Ba+2            1.562e-02   7.377e-03    -1.806    -2.132    -0.326    -12.75
   BaOH+           2.899e-09   2.391e-09    -8.538    -8.621    -0.084     (0)  
Cl            3.124e-02
   Cl-             3.124e-02   2.553e-02    -1.505    -1.593    -0.088     18.27
H(0)          3.338e-40
   H2              1.669e-40   1.687e-40   -39.778   -39.773     0.005     20.00
O(0)          2.893e-13
   O2              1.447e-13   1.462e-13   -12.840   -12.835     0.005     35.00

------------------------------Saturation indices-------------------------------

	Phase               SI   log IAP   log K(298 K,   1 atm)

	H2(g)           -36.67    -39.77   -3.10  H2
	H2O(g)           -1.50     -0.00    1.50  H2O
	O2(g)            -9.94    -12.83   -2.89  O2


Reaction step 5.

Using solution 1.	
Using temperature 1.	
Using pressure 1.	
Using reaction 1.	

Reaction 1.	

	  2.736e-02 moles of the following reaction have been added:

	                 Relative
	Reactant            moles

	BaCl2                1.00000

	                 Relative
	Element             moles
	Ba                   1.00000
	Cl                   2.00000

-----------------------------Solution composition------------------------------

	Elements           Molality       Moles

	Ba                2.736e-02   2.736e-02
	Cl                5.472e-02   5.472e-02

----------------------------Description of solution----------------------------

                                       pH  =   6.974      Charge balance
                                       pe  =  11.347      Adjusted to redox equilibrium
       Specific Conductance (uS/cm, 25 oC) = 5954
                          Density (g/cm3)  =   1.00202
                        Activity of water  =   0.999
                           Ionic strength  =   8.208e-02
                       Mass of water (kg)  =   1.000e+00
                 Total alkalinity (eq/kg)  =   3.843e-17
                    Total carbon (mol/kg)  =   0.000e+00
                       Total CO2 (mol/kg)  =   0.000e+00
                      Temperature (deg C)  =  25.00
                  Electrical balance (eq)  =   6.378e-15
 Percent error, 100*(Cat-|An|)/(Cat+|An|)  =   0.00
                               Iterations  =  10
                                  Total H  = 1.110124e+02
                                  Total O  = 5.550622e+01

----------------------------Distribution of species----------------------------

                                            Log       Log         Log     mole V
   Species          Molality    Activity  Molality  Activity     Gamma   cm3/mol

   H+              1.274e-07   1.062e-07    -6.895    -6.974    -0.079      0.00
[...]

                                       pH  =   5.797      Charge balance
                                       pe  =   5.286      Adjusted to redox equilibrium
       Specific Conductance (uS/cm, 140 oC) = 223561
                          Density (g/cm3)  =   1.02538
                        Activity of water  =   0.970
                           Ionic strength  =   1.763e+00
                       Mass of water (kg)  =   1.000e+00
                 Total alkalinity (eq/kg)  =  -7.396e-17
                    Total carbon (mol/kg)  =   0.000e+00
                       Total CO2 (mol/kg)  =   0.000e+00
                      Temperature (deg C)  = 140.00
                           Pressure (atm)  =  3.57
                  Electrical balance (eq)  =   4.430e-16
 Percent error, 100*(Cat-|An|)/(Cat+|An|)  =   0.00
                               Iterations  =   8
                                  Total H  = 1.110124e+02
                                  Total O  = 5.550622e+01

----------------------------Distribution of species----------------------------

                                            Log       Log         Log     mole V
   Species          Molality    Activity  Molality  Activity     Gamma   cm3/mol

   H+              2.365e-06   1.594e-06    -5.626    -5.797    -0.171      0.00
   OH-             2.364e-06   1.085e-06    -5.626    -5.964    -0.338     -9.70
   H2O             5.551e+01   9.700e-01     1.744    -0.013     0.000     19.46
Ba            5.878e-01
   Ba+2            5.878e-01   5.024e-02    -0.231    -1.299    -1.068     -4.54
   BaOH+           1.104e-09   1.036e-09    -8.957    -8.985    -0.028     (0)  
Cl            1.176e+00
   Cl-             1.176e+00   5.737e-01     0.070    -0.241    -0.312     14.82
H(0)          2.804e-26
   H2              1.402e-26   2.104e-26   -25.853   -25.677     0.176     20.00
O(0)          7.143e-15
   O2              3.571e-15   5.360e-15   -14.447   -14.271     0.176     35.00

------------------------------Saturation indices-------------------------------

	Phase               SI   log IAP   log K(413 K,   4 atm)

	H2(g)           -22.67    -25.68   -3.01  H2
	H2O(g)            0.53     -0.01   -0.54  H2O
	O2(g)           -11.21    -14.27   -3.07  O2


Reaction step 13.

Using solution 1.	
Using temperature 1.	
Using pressure 1.	
Using reaction 1.	

Reaction 1.	

	  7.877e-01 moles of the following reaction have been added:

	                 Relative
	Reactant            moles

	BaCl2                1.00000

	                 Relative
	Element             moles
	Ba                   1.00000
	Cl                   2.00000

-----------------------------Solution composition------------------------------

	Elements           Molality       Moles

	Ba                7.877e-01   7.877e-01
	Cl                1.575e+00   1.575e+00

----------------------------Description of solution----------------------------

                                       pH  =   5.793      Charge balance
                                       pe  =   5.309      Adjusted to redox equilibrium
       Specific Conductance (uS/cm, 140 oC) = 238735
                          Density (g/cm3)  =   1.05759
                        Activity of water  =   0.960
                           Ionic strength  =   2.363e+00
                       Mass of water (kg)  =   1.000e+00
                 Total alkalinity (eq/kg)  =  -1.526e-16
                    Total carbon (mol/kg)  =   0.000e+00
                       Total CO2 (mol/kg)  =   0.000e+00
                      Temperature (deg C)  = 140.00
                           Pressure (atm)  =  3.57
                  Electrical balance (eq)  =   4.803e-14
 Percent error, 100*(Cat-|An|)/(Cat+|An|)  =   0.00
                               Iterations  =   8
                                  Total H  = 1.110124e+02
                                  Total O  = 5.550622e+01

----------------------------Distribution of species----------------------------

                                            Log       Log         Log     mole V
   Species          Molality    Activity  Molality  Activity     Gamma   cm3/mol

   H+              2.416e-06   1.611e-06    -5.617    -5.793    -0.176      0.00
   OH-             2.414e-06   1.063e-06    -5.617    -5.974    -0.356     -8.42
   H2O             5.551e+01   9.598e-01     1.744    -0.018     0.000     19.46
Ba            7.877e-01
   Ba+2            7.877e-01   6.063e-02    -0.104    -1.217    -1.114     -7.52
   BaOH+           1.044e-09   1.224e-09    -8.981    -8.912     0.069     (0)  
Cl            1.575e+00
   Cl-             1.575e+00   7.523e-01     0.197    -0.124    -0.321     16.94
H(0)          2.249e-26
   H2              1.124e-26   1.938e-26   -25.949   -25.713     0.236     20.00
O(0)          7.182e-15
   O2              3.591e-15   6.187e-15   -14.445   -14.208     0.236     35.00

------------------------------Saturation indices-------------------------------

	Phase               SI   log IAP   log K(413 K,   4 atm)

	H2(g)           -22.70    -25.71   -3.01  H2
	H2O(g)            0.52     -0.02   -0.54  H2O
	O2(g)           -11.14    -14.21   -3.07  O2


Reaction step 14.

Using solution 1.	
Using temperature 1.	
Using pressure 1.	
Using reaction 1.	

Reaction 1.	

	  8.333e-01 moles of the following reaction have been added:

	                 Relative
	Reactant            moles

	BaCl2                1.00000

	                 Relative
	Element             moles
	Ba                   1.00000
	Cl                   2.00000

-----------------------------Solution composition------------------------------

	Elements           Molality       Moles

	Ba                8.333e-01   8.333e-01
	Cl                1.667e+00   1.667e+00

----------------------------Description of solution----------------------------

                                       pH  =   5.792      Charge balance
                                       pe  =   5.311      Adjusted to redox equilibrium
       Specific Conductance (uS/cm, 140 oC) = 241086
                          Density (g/cm3)  =   1.06487
                        Activity of water  =   0.957
                           Ionic strength  =   2.500e+00
                       Mass of water (kg)  =   1.000e+00
                 Total alkalinity (eq/kg)  =   1.188e-16
                    Total carbon (mol/kg)  =   0.000e+00
                       Total CO2 (mol/kg)  =   0.000e+00
                      Temperature (deg C)  = 140.00
                           Pressure (atm)  =  3.57
                  Electrical balance (eq)  =   4.052e-14
 Percent error, 100*(Cat-|An|)/(Cat+|An|)  =   0.00
                               Iterations  =   8
                                  Total H  = 1.110124e+02
                                  Total O  = 5.550622e+01

----------------------------Distribution of species----------------------------

                                            Log       Log         Log     mole V
   Species          Molality    Activity  Molality  Activity     Gamma   cm3/mol

   H+              2.425e-06   1.614e-06    -5.615    -5.792    -0.177      0.00
   OH-             2.424e-06   1.058e-06    -5.616    -5.975    -0.360     -8.14
   H2O             5.551e+01   9.575e-01     1.744    -0.019     0.000     19.46
Ba            8.333e-01
   Ba+2            8.333e-01   6.291e-02    -0.079    -1.201    -1.122     -8.22
   BaOH+           1.023e-09   1.264e-09    -8.990    -8.898     0.092     (0)  
Cl            1.667e+00
   Cl-             1.667e+00   7.933e-01     0.222    -0.101    -0.322     17.42
H(0)          2.160e-26
   H2              1.080e-26   1.921e-26   -25.966   -25.716     0.250     20.00
O(0)          7.046e-15
   O2              3.523e-15   6.265e-15   -14.453   -14.203     0.250     35.00

------------------------------Saturation indices-------------------------------

	Phase               SI   log IAP   log K(413 K,   4 atm)

	H2(g)           -22.71    -25.72   -3.01  H2
	H2O(g)            0.52     -0.02   -0.54  H2O
	O2(g)           -11.14    -14.20   -3.07  O2


Reaction step 15.

Using solution 1.	
Using temperature 1.	
Using pressure 1.	
Using reaction 1.	

Reaction 1.	

	  9.921e-01 moles of the following reaction have been added:

	                 Relative
	Reactant            moles

	BaCl2                1.00000

	                 Relative
	Element             moles
	Ba                   1.00000
	Cl                   2.00000

-----------------------------Solution composition------------------------------

	Elements           Molality       Moles

	Ba                9.921e-01   9.921e-01
	Cl                1.984e+00   1.984e+00

----------------------------Description of solution----------------------------

                                       pH  =   5.790      Charge balance
                                       pe  =   5.328      Adjusted to redox equilibrium
       Specific Conductance (uS/cm, 140 oC) = 247236
                          Density (g/cm3)  =   1.08999
                        Activity of water  =   0.949
                           Ionic strength  =   2.976e+00
                       Mass of water (kg)  =   1.000e+00
                 Total alkalinity (eq/kg)  =   9.326e-17
                    Total carbon (mol/kg)  =   0.000e+00
                       Total CO2 (mol/kg)  =   0.000e+00
                      Temperature (deg C)  = 140.00
                           Pressure (atm)  =  3.57
                  Electrical balance (eq)  =   2.809e-14
 Percent error, 100*(Cat-|An|)/(Cat+|An|)  =   0.00
                               Iterations  =   8
                                  Total H  = 1.110124e+02
                                  Total O  = 5.550622e+01

----------------------------Distribution of species----------------------------

                                            Log       Log         Log     mole V
   Species          Molality    Activity  Molality  Activity     Gamma   cm3/mol

   H+              2.451e-06   1.622e-06    -5.611    -5.790    -0.179      0.00
   OH-             2.450e-06   1.044e-06    -5.611    -5.981    -0.370     -7.19
   H2O             5.551e+01   9.494e-01     1.744    -0.023     0.000     19.46
Ba            9.921e-01
   Ba+2            9.921e-01   7.064e-02    -0.003    -1.151    -1.148    -10.73
   BaOH+           9.383e-10   1.401e-09    -9.028    -8.854     0.174     (0)  
Cl            1.984e+00
   Cl-             1.984e+00   9.372e-01     0.298    -0.028    -0.326     19.03
H(0)          1.816e-26
   H2              9.078e-27   1.801e-26   -26.042   -25.744     0.298     20.00
O(0)          7.059e-15
   O2              3.530e-15   7.004e-15   -14.452   -14.155     0.298     35.00

------------------------------Saturation indices-------------------------------

	Phase               SI   log IAP   log K(413 K,   4 atm)

	H2(g)           -22.74    -25.74   -3.01  H2
	H2O(g)            0.52     -0.02   -0.54  H2O
	O2(g)           -11.09    -14.15   -3.07  O2


Reaction step 16.

Using solution 1.	
Using temperature 1.	
Using pressure 1.	
Using reaction 1.	

Reaction 1.	

	  1.224e+00 moles of the following reaction have been added:

	                 Relative
	Reactant            moles

	BaCl2                1.00000

	                 Relative
	Element             moles
	Ba                   1.00000
	Cl                   2.00000

-----------------------------Solution composition------------------------------

	Elements           Molality       Moles

	Ba                1.224e+00   1.224e+00
	Cl                2.449e+00   2.449e+00

----------------------------Description of solution----------------------------

                                       pH  =   5.788      Charge balance
                                       pe  =   5.350      Adjusted to redox equilibrium
       Specific Conductance (uS/cm, 140 oC) = 252715
                          Density (g/cm3)  =   1.12620
                        Activity of water  =   0.938
                           Ionic strength  =   3.673e+00
                       Mass of water (kg)  =   1.000e+00
                 Total alkalinity (eq/kg)  =   5.582e-17
                    Total carbon (mol/kg)  =   0.000e+00
                       Total CO2 (mol/kg)  =   0.000e+00
                      Temperature (deg C)  = 140.00
                           Pressure (atm)  =  3.57
                  Electrical balance (eq)  =   2.928e-14
 Percent error, 100*(Cat-|An|)/(Cat+|An|)  =   0.00
                               Iterations  =   8
                                  Total H  = 1.110124e+02
                                  Total O  = 5.550622e+01

----------------------------Distribution of species----------------------------

                                            Log       Log         Log     mole V
   Species          Molality    Activity  Molality  Activity     Gamma   cm3/mol

   H+              2.478e-06   1.630e-06    -5.606    -5.788    -0.182      0.00
   OH-             2.477e-06   1.026e-06    -5.606    -5.989    -0.383     -5.88
   H2O             5.551e+01   9.376e-01     1.744    -0.028     0.000     19.46
Ba            1.224e+00
   Ba+2            1.224e+00   8.151e-02     0.088    -1.089    -1.177    -14.52
   BaOH+           8.004e-10   1.589e-09    -9.097    -8.799     0.298     (0)  
Cl            2.449e+00
   Cl-             2.449e+00   1.152e+00     0.389     0.061    -0.328     21.33
H(0)          1.408e-26
   H2              7.038e-27   1.640e-26   -26.153   -25.785     0.367     20.00
O(0)          7.079e-15
   O2              3.539e-15   8.245e-15   -14.451   -14.084     0.367     35.00

------------------------------Saturation indices-------------------------------

	Phase               SI   log IAP   log K(413 K,   4 atm)

	H2(g)           -22.78    -25.79   -3.01  H2
	H2O(g)            0.51     -0.03   -0.54  H2O
	O2(g)           -11.02    -14.08   -3.07  O2


Reaction step 17.

Using solution 1.	
Using temperature 1.	
Using pressure 1.	
Using reaction 1.	

Reaction 1.	

	  1.500e+00 moles of the following reaction have been added:

	                 Relative
	Reactant            moles

	BaCl2                1.00000

	                 Relative
	Element             moles
	Ba                   1.00000
	Cl                   2.00000

-----------------------------Solution composition------------------------------

	Elements           Molality       Moles

	Ba                1.500e+00   1.500e+00
	Cl                3.000e+00   3.000e+00

----------------------------Description of solution----------------------------

                                       pH  =   5.787      Charge balance
                                       pe  =   5.376      Adjusted to redox equilibrium
       Specific Conductance (uS/cm, 140 oC) = 256885
                          Density (g/cm3)  =   1.16851
                        Activity of water  =   0.923
                           Ionic strength  =   4.500e+00
                       Mass of water (kg)  =   1.000e+00
                 Total alkalinity (eq/kg)  =  -1.099e-16
                    Total carbon (mol/kg)  =   0.000e+00
                       Total CO2 (mol/kg)  =   0.000e+00
                      Temperature (deg C)  = 140.00
                           Pressure (atm)  =  3.57
                  Electrical balance (eq)  =   5.851e-14
 Percent error, 100*(Cat-|An|)/(Cat+|An|)  =   0.00
                               Iterations  =   8
                                  Total H  = 1.110124e+02
                                  Total O  = 5.550622e+01

----------------------------Distribution of species----------------------------

                                            Log       Log         Log     mole V
   Species          Molality    Activity  Molality  Activity     Gamma   cm3/mol

   H+              2.498e-06   1.634e-06    -5.602    -5.787    -0.184      0.00
   OH-             2.498e-06   1.008e-06    -5.602    -5.996    -0.394     -4.38
   H2O             5.551e+01   9.235e-01     1.744    -0.035     0.000     19.46
Ba            1.500e+00
   Ba+2            1.500e+00   9.393e-02     0.176    -1.027    -1.203    -19.14
   BaOH+           6.399e-10   1.799e-09    -9.194    -8.745     0.449     (0)  
Cl            3.000e+00
   Cl-             3.000e+00   1.415e+00     0.477     0.151    -0.326     23.98
H(0)          1.036e-26
   H2              5.180e-27   1.460e-26   -26.286   -25.836     0.450     20.00
O(0)          7.161e-15
   O2              3.580e-15   1.009e-14   -14.446   -13.996     0.450     35.00

------------------------------Saturation indices-------------------------------

	Phase               SI   log IAP   log K(413 K,   4 atm)

	H2(g)           -22.83    -25.84   -3.01  H2
	H2O(g)            0.51     -0.03   -0.54  H2O
	O2(g)           -10.93    -14.00   -3.07  O2


Reaction step 18.

Using solution 1.	
Using temperature 1.	
Using pressure 1.	
Using reaction 1.	

Reaction 1.	

	  1.586e+00 moles of the following reaction have been added:

	                 Relative
	Reactant            moles

	BaCl2                1.00000

	                 Relative
	Element             moles
	Ba                   1.00000
	Cl                   2.00000

-----------------------------Solution composition------------------------------

	Elements           Molality       Moles

	Ba                1.586e+00   1.586e+00
	Cl                3.172e+00   3.172e+00

----------------------------Description of solution----------------------------

                                       pH  =   5.787      Charge balance
                                       pe  =   5.384      Adjusted to redox equilibrium
       Specific Conductance (uS/cm, 140 oC) = 258027
                          Density (g/cm3)  =   1.18153
                        Activity of water  =   0.919
                           Ionic strength  =   4.757e+00
                       Mass of water (kg)  =   1.000e+00
                 Total alkalinity (eq/kg)  =  -1.951e-16
                    Total carbon (mol/kg)  =   0.000e+00
                       Total CO2 (mol/kg)  =   0.000e+00
                      Temperature (deg C)  = 140.00
                           Pressure (atm)  =  3.57
                  Electrical balance (eq)  =   8.058e-14
 Percent error, 100*(Cat-|An|)/(Cat+|An|)  =   0.00
                               Iterations  =   8
                                  Total H  = 1.110124e+02
                                  Total O  = 5.550622e+01

----------------------------Distribution of species----------------------------

                                            Log       Log         Log     mole V
   Species          Molality    Activity  Molality  Activity     Gamma   cm3/mol

   H+              2.503e-06   1.634e-06    -5.602    -5.787    -0.185      0.00
   OH-             2.502e-06   1.003e-06    -5.602    -5.999    -0.397     -3.93
   H2O             5.551e+01   9.191e-01     1.744    -0.037     0.000     19.46
Ba            1.586e+00
   Ba+2            1.586e+00   9.770e-02     0.200    -1.010    -1.210    -20.60
   BaOH+           5.934e-10   1.862e-09    -9.227    -8.730     0.497     (0)  
Cl            3.172e+00
   Cl-             3.172e+00   1.498e+00     0.501     0.176    -0.326     24.80
H(0)          9.405e-27
   H2              4.703e-27   1.406e-26   -26.328   -25.852     0.476     20.00
O(0)          7.203e-15
   O2              3.602e-15   1.077e-14   -14.444   -13.968     0.476     35.00

------------------------------Saturation indices-------------------------------

	Phase               SI   log IAP   log K(413 K,   4 atm)

	H2(g)           -22.84    -25.85   -3.01  H2
	H2O(g)            0.51     -0.04   -0.54  H2O
	O2(g)           -10.90    -13.97   -3.07  O2


------------------
End of simulation.
------------------

-------------------------------------
Reading input data for simulation 11.
-------------------------------------

-----------
End of run.
-----------

