   Input file: Vm_CaCl2_sol
  Output file: Vm_CaCl2_sol.out
Database file: ../database/phreeqc.dat

------------------
Reading data base.
------------------

	SOLUTION_MASTER_SPECIES
	SOLUTION_SPECIES
	PHASES
	EXCHANGE_MASTER_SPECIES
	EXCHANGE_SPECIES
	SURFACE_MASTER_SPECIES
	SURFACE_SPECIES
	RATES
	END
------------------------------------
Reading input data for simulation 1.
------------------------------------

	DATABASE ../database/phreeqc.dat
	SOLUTION_SPECIES
	H2O = OH- + H+
		log_k	-14.0
		delta_h 13.362	kcal
		analytical_expression   235.27  8.638e-2  -9.9073e3 -96.2854   2.8e+03  -4.0136e-5 # 0 - 200 oC
		gamma	3.5	0.0
		dw	 5.27e-9
		vm -5.7 0.11 -13e-4  1 0 0 -3.77e-3 0 # NaOH.xls, KOH.xls Laliberte, tc >= 15oC, Na, K < 0.51M. 1 - 1000 atm, pKw(T, rho) from Bandura and Lvov, 2006, J. Phys. Chem. Ref. Data, 35, 15.
	Cl- = Cl-
		gamma	3.5	0.015
		dw	 2.03e-9
		millero 16.37 0.0896 -0.001264 -1.494 0.034 -0.000621
		vm   1.6256503E+01  1.0415929E-01  -1.2534252E-03   4.6744285E-01  -2.7011839E-02  2.9497981E-04   0.0000000E+00  4.0366004E-02 # 0-100 oC, HCl.xls, Laliberte, 2009. Halite solubility
	Ca+2 = Ca+2
		gamma	5.0	0.165
		millero -19.69 0.1058 -0.001256 1.617 -0.075 0.0008262
		vm -18.8 0.04 2e-4
		vm  -1.7951071E+01 -3.2881345E-02   6.2289211E-04  -4.7277369E-01   4.7178896E-02 -5.7660482E-04   0.0000000E+00   4.6868669E+00
	SOLUTION 1
	 pH 7 charge
	END
-------------------------------------------
Beginning of initial solution calculations.
-------------------------------------------

Initial solution 1.	

-----------------------------Solution composition------------------------------

	Elements           Molality       Moles

	Pure water     

----------------------------Description of solution----------------------------

                                       pH  =   6.997      Charge balance
                                       pe  =   4.000    
       Specific Conductance (uS/cm, 25 oC) = 0
                          Density (g/cm3)  =   0.99700
                        Activity of water  =   1.000
                           Ionic strength  =   1.008e-07
                       Mass of water (kg)  =   1.000e+00
                 Total alkalinity (eq/kg)  =   3.540e-17
                    Total carbon (mol/kg)  =   0.000e+00
                       Total CO2 (mol/kg)  =   0.000e+00
                      Temperature (deg C)  =  25.00
                  Electrical balance (eq)  =  -3.540e-17
 Percent error, 100*(Cat-|An|)/(Cat+|An|)  =  -0.00
                               Iterations  =   2
                                  Total H  = 1.110124e+02
                                  Total O  = 5.550622e+01

----------------------------Distribution of species----------------------------

                                            Log       Log         Log     mole V
   Species          Molality    Activity  Molality  Activity     Gamma   cm3/mol

   OH-             1.008e-07   1.008e-07    -6.997    -6.997    -0.000     -3.76
   H+              1.008e-07   1.008e-07    -6.997    -6.997    -0.000      0.00
   H2O             5.551e+01   1.000e+00     1.744    -0.000     0.000     18.07
H(0)          1.438e-25
   H2              7.189e-26   7.189e-26   -25.143   -25.143     0.000     20.00
O(0)          0.000e+00
   O2              0.000e+00   0.000e+00   -42.093   -42.093     0.000     35.00

------------------------------Saturation indices-------------------------------

	Phase               SI   log IAP   log K(298 K,   1 atm)

	H2(g)           -22.04    -25.14   -3.10  H2
	H2O(g)           -1.50     -0.00    1.50  H2O
	O2(g)           -39.20    -42.09   -2.89  O2


------------------
End of simulation.
------------------

------------------------------------
Reading input data for simulation 2.
------------------------------------

	USE solution 1
	REACTION_TEMPERATURE
	 15.000000
	REACTION_PRESSURE
	 0.000000
	REACTION
	 CaCl2 1
	0 0.050000 0.100000 0.500000 1.000000 2.000000 3.000000 4.000000 6.000000
	USER_GRAPH
	 -headings 15.oC
	-axis_titles "CaCl2 / (mol/kg H2O)" "CaCl2 molar volume / (cm3/mol)"
	10 data 0, 18.829589, 18.946477, 20.954920, 22.731945, 25.408129, 27.642932, 29.475311, 32.659160,
	20 dim d(9)
	30 read d(1), d(2), d(3), d(4), d(5), d(6), d(7), d(8), d(9),
	40 if step_no = 1 then put(rho, 10)
	50 if step_no > 1 then Vm = (1e3 + tot("Ca") * 110.986) / (tot("Ca") * rho) - 1e3 / (tot("Ca") * get(10))
	60 if step_no = 1 then dif = 0 else dif = Vm - d(step_no)
	62 if step_no = 1 then goto 90
	70 plot_xy tot("Ca"), d(step_no), line_w = 0, color = Yellow #aph_x tot("Ca") # dif, str$(tc), str$(pressure), str$(step_no + get(1))
	80 plot_xy tot("Ca"), Vm, symbol = None, color = Yellow #step_no = 264 then put(step_no + get(1), 1)
	90 end
	END
-----------------------------------------
Beginning of batch-reaction calculations.
-----------------------------------------

Reaction step 1.

Using solution 1.	
Using temperature 1.	
Using pressure 1.	
Using reaction 1.	

Reaction 1.	

	  0.000e+00 moles of the following reaction have been added:

	                 Relative
	Reactant            moles

	CaCl2                1.00000

	                 Relative
	Element             moles
	Ca                   1.00000
	Cl                   2.00000

-----------------------------Solution composition------------------------------

	Elements           Molality       Moles

	Pure water     

----------------------------Description of solution----------------------------

                                       pH  =   7.173      Charge balance
                                       pe  =  11.591      Adjusted to redox equilibrium
       Specific Conductance (uS/cm, 15 oC) = 0
                          Density (g/cm3)  =   0.99905
                        Activity of water  =   1.000
                           Ionic strength  =   6.715e-08
                       Mass of water (kg)  =   1.000e+00
                 Total alkalinity (eq/kg)  =   3.540e-17
                    Total carbon (mol/kg)  =   0.000e+00
                       Total CO2 (mol/kg)  =   0.000e+00
                      Temperature (deg C)  =  15.00
                           Pressure (atm)  =  0.02
                  Electrical balance (eq)  =  -3.540e-17
 Percent error, 100*(Cat-|An|)/(Cat+|An|)  =  -0.00
                               Iterations  =  33
                                  Total H  = 1.110124e+02
                                  Total O  = 5.550622e+01

----------------------------Distribution of species----------------------------

                                            Log       Log         Log     mole V
   Species          Molality    Activity  Molality  Activity     Gamma   cm3/mol

   OH-             6.715e-08   6.713e-08    -7.173    -7.173    -0.000     -4.34
   H+              6.715e-08   6.713e-08    -7.173    -7.173    -0.000      0.00
   H2O             5.551e+01   1.000e+00     1.744    -0.000     0.000     18.03
H(0)          0.000e+00
   H2              0.000e+00   0.000e+00   -40.634   -40.634     0.000     20.00
O(0)          7.088e-15
   O2              3.544e-15   3.544e-15   -14.451   -14.451     0.000     35.00

------------------------------Saturation indices-------------------------------

	Phase               SI   log IAP   log K(288 K,   0 atm)

	H2(g)           -37.56    -40.63   -3.07  H2
	H2O(g)           -1.77     -0.00    1.77  H2O
	O2(g)           -11.64    -14.45   -2.81  O2


Reaction step 2.

Using solution 1.	
Using temperature 1.	
Using pressure 1.	
Using reaction 1.	

Reaction 1.	

	  5.000e-02 moles of the following reaction have been added:

	                 Relative
	Reactant            moles

	CaCl2                1.00000

	                 Relative
	Element             moles
	Ca                   1.00000
	Cl                   2.00000

-----------------------------Solution composition------------------------------

	Elements           Molality       Moles

	Ca                5.000e-02   5.000e-02
	Cl                1.000e-01   1.000e-01

----------------------------Description of solution----------------------------

                                       pH  =   7.046      Charge balance
                                       pe  =  11.723      Adjusted to redox equilibrium
       Specific Conductance (uS/cm, 15 oC) = 4970
                          Density (g/cm3)  =   1.00368
                        Activity of water  =   0.997
                           Ionic strength  =   1.500e-01
                       Mass of water (kg)  =   1.000e+00
                 Total alkalinity (eq/kg)  =   4.475e-17
                    Total carbon (mol/kg)  =   0.000e+00
                       Total CO2 (mol/kg)  =   0.000e+00
                      Temperature (deg C)  =  15.00
                           Pressure (atm)  =  0.02
                  Electrical balance (eq)  =   3.108e-13
 Percent error, 100*(Cat-|An|)/(Cat+|An|)  =   0.00
                               Iterations  =  11
                                  Total H  = 1.110124e+02
                                  Total O  = 5.550622e+01

----------------------------Distribution of species----------------------------

                                            Log       Log         Log     mole V
   Species          Molality    Activity  Molality  Activity     Gamma   cm3/mol

   H+              1.108e-07   8.992e-08    -6.955    -7.046    -0.091      0.00
   OH-             6.815e-08   4.998e-08    -7.167    -7.301    -0.135     -3.87
   H2O             5.551e+01   9.974e-01     1.744    -0.001     0.000     18.03
Ca            5.000e-02
   Ca+2            5.000e-02   1.769e-02    -1.301    -1.752    -0.451    -17.54
   CaOH+           4.269e-08   3.257e-08    -7.370    -7.487    -0.117     (0)  
Cl            1.000e-01
   Cl-             1.000e-01   7.372e-02    -1.000    -1.132    -0.132     17.88
H(0)          0.000e+00
   H2              0.000e+00   0.000e+00   -40.658   -40.643     0.015     20.00
O(0)          7.083e-15
   O2              3.542e-15   3.666e-15   -14.451   -14.436     0.015     35.00

------------------------------Saturation indices-------------------------------

	Phase               SI   log IAP   log K(288 K,   0 atm)

	H2(g)           -37.57    -40.64   -3.07  H2
	H2O(g)           -1.77     -0.00    1.77  H2O
	O2(g)           -11.62    -14.44   -2.81  O2


Reaction step 3.

Using solution 1.	
Using temperature 1.	
Using pressure 1.	
Using reaction 1.	

Reaction 1.	

	  1.000e-01 moles of the following reaction have been added:

	                 Relative
	Reactant            moles

	CaCl2                1.00000

	                 Relative
	Element             moles
	Ca                   1.00000
	Cl                   2.00000

-----------------------------Solution composition------------------------------

	Elements           Molality       Moles

	Ca                1.000e-01   1.000e-01
	Cl                2.000e-01   2.000e-01

----------------------------Description of solution----------------------------

                                       pH  =   6.992      Charge balance
                                       pe  =  11.781      Adjusted to redox equilibrium
       Specific Conductance (uS/cm, 15 oC) = 9510
                          Density (g/cm3)  =   1.00826
                        Activity of water  =   0.995
                           Ionic strength  =   3.000e-01
                       Mass of water (kg)  =   1.000e+00
                 Total alkalinity (eq/kg)  =   6.377e-17
                    Total carbon (mol/kg)  =   0.000e+00
                       Total CO2 (mol/kg)  =   0.000e+00
                      Temperature (deg C)  =  15.00
                           Pressure (atm)  =  0.02
                  Electrical balance (eq)  =   3.445e-11
 Percent error, 100*(Cat-|An|)/(Cat+|An|)  =   0.00
                               Iterations  =  11
                                  Total H  = 1.110124e+02
                                  Total O  = 5.550622e+01

----------------------------Distribution of species----------------------------

                                            Log       Log         Log     mole V
   Species          Molality    Activity  Molality  Activity     Gamma   cm3/mol

   H+              1.298e-07   1.018e-07    -6.887    -6.992    -0.105      0.00
   OH-             6.495e-08   4.402e-08    -7.187    -7.356    -0.169     -3.58
   H2O             5.551e+01   9.949e-01     1.744    -0.002     0.000     18.03
Ca            1.000e-01
   Ca+2            1.000e-01   2.948e-02    -1.000    -1.530    -0.530    -17.36
   CaOH+           6.483e-08   4.779e-08    -7.188    -7.321    -0.132     (0)  
Cl            2.000e-01
   Cl-             2.000e-01   1.370e-01    -0.699    -0.863    -0.164     18.03
H(0)          0.000e+00
   H2              0.000e+00   0.000e+00   -40.681   -40.651     0.030     20.00
O(0)          7.084e-15
   O2              3.542e-15   3.795e-15   -14.451   -14.421     0.030     35.00

------------------------------Saturation indices-------------------------------

	Phase               SI   log IAP   log K(288 K,   0 atm)

	H2(g)           -37.58    -40.65   -3.07  H2
	H2O(g)           -1.77     -0.00    1.77  H2O
	O2(g)           -11.61    -14.42   -2.81  O2


Reaction step 4.

Using solution 1.	
Using temperature 1.	
Using pressure 1.	
Using reaction 1.	

Reaction 1.	

	  5.000e-01 moles of the following reaction have been added:

	                 Relative
	Reactant            moles

	CaCl2                1.00000

	                 Relative
	Element             moles
	Ca                   1.00000
	Cl                   2.00000

-----------------------------Solution composition------------------------------

	Elements           Molality       Moles

	Ca                5.000e-01   5.000e-01
	Cl                1.000e+00   1.000e+00

----------------------------Description of solution----------------------------

                                       pH  =   6.812      Charge balance
                                       pe  =  11.996      Adjusted to redox equilibrium
       Specific Conductance (uS/cm, 15 oC) = 30902
                          Density (g/cm3)  =   1.04370
                        Activity of water  =   0.974
                           Ionic strength  =   1.500e+00
                       Mass of water (kg)  =   1.000e+00
                 Total alkalinity (eq/kg)  =   1.939e-15
                    Total carbon (mol/kg)  =   0.000e+00
                       Total CO2 (mol/kg)  =   0.000e+00
                      Temperature (deg C)  =  15.00
                           Pressure (atm)  =  0.02
                  Electrical balance (eq)  =   1.008e-09
 Percent error, 100*(Cat-|An|)/(Cat+|An|)  =   0.00
                               Iterations  =  11
                                  Total H  = 1.110124e+02
                                  Total O  = 5.550622e+01

----------------------------Distribution of species----------------------------

                                            Log       Log         Log     mole V
   Species          Molality    Activity  Molality  Activity     Gamma   cm3/mol

   H+              2.095e-07   1.541e-07    -6.679    -6.812    -0.133      0.00
   OH-             5.137e-08   2.850e-08    -7.289    -7.545    -0.256     -1.81
   H2O             5.551e+01   9.745e-01     1.744    -0.011     0.000     18.03
Ca            5.000e-01
   Ca+2            5.000e-01   1.342e-01    -0.301    -0.872    -0.571    -16.77
   CaOH+           1.582e-07   1.408e-07    -6.801    -6.851    -0.050     (0)  
Cl            1.000e+00
   Cl-             1.000e+00   5.843e-01     0.000    -0.233    -0.233     18.74
H(0)          0.000e+00
   H2              0.000e+00   0.000e+00   -40.872   -40.722     0.150     20.00
O(0)          7.121e-15
   O2              3.560e-15   5.029e-15   -14.449   -14.299     0.150     35.00

------------------------------Saturation indices-------------------------------

	Phase               SI   log IAP   log K(288 K,   0 atm)

	H2(g)           -37.65    -40.72   -3.07  H2
	H2O(g)           -1.78     -0.01    1.77  H2O
	O2(g)           -11.49    -14.30   -2.81  O2


Reaction step 5.

Using solution 1.	
Using temperature 1.	
Using pressure 1.	
Using reaction 1.	

Reaction 1.	

	  1.000e+00 moles of the following reaction have been added:

	                 Relative
	Reactant            moles

	CaCl2                1.00000

	                 Relative
	Element             moles
	Ca                   1.00000
	Cl                   2.00000

-----------------------------Solution composition------------------------------

	Elements           Molality       Moles

	Ca                1.000e+00   1.000e+00
	Cl                2.000e+00   2.000e+00

----------------------------Description of solution----------------------------

                                       pH  =   6.708      Charge balance
                                       pe  =  12.141      Adjusted to redox equilibrium
       Specific Conductance (uS/cm, 15 oC) = 44670
                          Density (g/cm3)  =   1.08578
                        Activity of water  =   0.949
                           Ionic strength  =   3.000e+00
                       Mass of water (kg)  =   1.000e+00
                 Total alkalinity (eq/kg)  =   4.117e-16
                    Total carbon (mol/kg)  =   0.000e+00
                       Total CO2 (mol/kg)  =   0.000e+00
                      Temperature (deg C)  =  15.00
                           Pressure (atm)  =  0.02
                  Electrical balance (eq)  =   1.597e-11
 Percent error, 100*(Cat-|An|)/(Cat+|An|)  =   0.00
                               Iterations  =  11
                                  Total H  = 1.110124e+02
                                  Total O  = 5.550622e+01

----------------------------Distribution of species----------------------------

                                            Log       Log         Log     mole V
   Species          Molality    Activity  Molality  Activity     Gamma   cm3/mol

   H+              2.718e-07   1.957e-07    -6.566    -6.708    -0.143      0.00
   OH-             4.274e-08   2.185e-08    -7.369    -7.661    -0.291      0.12
   H2O             5.551e+01   9.490e-01     1.744    -0.023     0.000     18.03
Ca            1.000e+00
   Ca+2            1.000e+00   3.870e-01    -0.000    -0.412    -0.412    -16.40
   CaOH+           2.290e-07   3.114e-07    -6.640    -6.507     0.133     (0)  
Cl            2.000e+00
   Cl-             2.000e+00   1.134e+00     0.301     0.055    -0.246     19.33
H(0)          0.000e+00
   H2              0.000e+00   0.000e+00   -41.104   -40.804     0.300     20.00
O(0)          6.995e-15
   O2              3.498e-15   6.979e-15   -14.456   -14.156     0.300     35.00

------------------------------Saturation indices-------------------------------

	Phase               SI   log IAP   log K(288 K,   0 atm)

	H2(g)           -37.73    -40.80   -3.07  H2
	H2O(g)           -1.79     -0.02    1.77  H2O
	O2(g)           -11.34    -14.16   -2.81  O2


Reaction step 6.

Using solution 1.	
Using temperature 1.	
Using pressure 1.	
Using reaction 1.	

Reaction 1.	

	  2.000e+00 moles of the following reaction have been added:

	                 Relative
	Reactant            moles

	CaCl2                1.00000

	                 Relative
	Element             moles
	Ca                   1.00000
	Cl                   2.00000

-----------------------------Solution composition------------------------------

	Elements           Molality       Moles

	Ca                2.000e+00   2.000e+00
	Cl                4.000e+00   4.000e+00

----------------------------Description of solution----------------------------

                                       pH  =   6.587      Charge balance
                                       pe  =  12.350      Adjusted to redox equilibrium
       Specific Conductance (uS/cm, 15 oC) = 64079
                          Density (g/cm3)  =   1.16341
                        Activity of water  =   0.898
                           Ionic strength  =   6.000e+00
                       Mass of water (kg)  =   1.000e+00
                 Total alkalinity (eq/kg)  =   1.502e-16
                    Total carbon (mol/kg)  =   0.000e+00
                       Total CO2 (mol/kg)  =   0.000e+00
                      Temperature (deg C)  =  15.00
                           Pressure (atm)  =  0.02
                  Electrical balance (eq)  =  -9.753e-12
 Percent error, 100*(Cat-|An|)/(Cat+|An|)  =  -0.00
                               Iterations  =  11
                                  Total H  = 1.110124e+02
                                  Total O  = 5.550622e+01

----------------------------Distribution of species----------------------------

                                            Log       Log         Log     mole V
   Species          Molality    Activity  Molality  Activity     Gamma   cm3/mol

   H+              3.655e-07   2.589e-07    -6.437    -6.587    -0.150      0.00
   OH-             3.289e-08   1.563e-08    -7.483    -7.806    -0.323      3.72
   H2O             5.551e+01   8.980e-01     1.744    -0.047     0.000     18.03
Ca            2.000e+00
   Ca+2            2.000e+00   2.035e+00     0.301     0.309     0.008    -15.86
   CaOH+           3.326e-07   1.172e-06    -6.478    -5.931     0.547     (0)  
Cl            4.000e+00
   Cl-             4.000e+00   2.338e+00     0.602     0.369    -0.233     20.28
H(0)          0.000e+00
   H2              0.000e+00   0.000e+00   -41.579   -40.979     0.600     20.00
O(0)          7.031e-15
   O2              3.515e-15   1.399e-14   -14.454   -13.854     0.600     35.00

------------------------------Saturation indices-------------------------------

	Phase               SI   log IAP   log K(288 K,   0 atm)

	H2(g)           -37.91    -40.98   -3.07  H2
	H2O(g)           -1.82     -0.05    1.77  H2O
	O2(g)           -11.04    -13.85   -2.81  O2


Reaction step 7.

Using solution 1.	
Using temperature 1.	
Using pressure 1.	
Using reaction 1.	

Reaction 1.	

	  3.000e+00 moles of the following reaction have been added:

	                 Relative
	Reactant            moles

	CaCl2                1.00000

	                 Relative
	Element             moles
	Ca                   1.00000
	Cl                   2.00000

-----------------------------Solution composition------------------------------

	Elements           Molality       Moles

	Ca                3.000e+00   3.000e+00
	Cl                6.000e+00   6.000e+00

----------------------------Description of solution----------------------------

                                       pH  =   6.507      Charge balance
                                       pe  =  12.515      Adjusted to redox equilibrium
       Specific Conductance (uS/cm, 15 oC) = 87152
                          Density (g/cm3)  =   1.23285
                        Activity of water  =   0.847
                           Ionic strength  =   9.000e+00
                       Mass of water (kg)  =   1.000e+00
                 Total alkalinity (eq/kg)  =   4.576e-16
                    Total carbon (mol/kg)  =   0.000e+00
                       Total CO2 (mol/kg)  =   0.000e+00
                      Temperature (deg C)  =  15.00
                           Pressure (atm)  =  0.02
                  Electrical balance (eq)  =  -1.105e-11
 Percent error, 100*(Cat-|An|)/(Cat+|An|)  =  -0.00
                               Iterations  =  12
                                  Total H  = 1.110124e+02
                                  Total O  = 5.550622e+01

----------------------------Distribution of species----------------------------

                                            Log       Log         Log     mole V
   Species          Molality    Activity  Molality  Activity     Gamma   cm3/mol

   H+              4.427e-07   3.111e-07    -6.354    -6.507    -0.153      0.00
   OH-             2.681e-08   1.227e-08    -7.572    -7.911    -0.340      7.18
   H2O             5.551e+01   8.470e-01     1.744    -0.072     0.000     18.03
Ca            3.000e+00
   Ca+2            3.000e+00   8.756e+00     0.477     0.942     0.465    -15.41
   CaOH+           4.158e-07   3.956e-06    -6.381    -5.403     0.978     (0)  
Cl            6.000e+00
   Cl-             6.000e+00   3.746e+00     0.778     0.574    -0.205     21.08
H(0)          0.000e+00
   H2              0.000e+00   0.000e+00   -42.050   -41.150     0.900     20.00
O(0)          6.879e-15
   O2              3.440e-15   2.732e-14   -14.463   -13.563     0.900     35.00

------------------------------Saturation indices-------------------------------

	Phase               SI   log IAP   log K(288 K,   0 atm)

	H2(g)           -38.08    -41.15   -3.07  H2
	H2O(g)           -1.84     -0.07    1.77  H2O
	O2(g)           -10.75    -13.56   -2.81  O2


Reaction step 8.

Using solution 1.	
Using temperature 1.	
Using pressure 1.	
Using reaction 1.	

Reaction 1.	

	  4.000e+00 moles of the following reaction have been added:

	                 Relative
	Reactant            moles

	CaCl2                1.00000

	                 Relative
	Element             moles
	Ca                   1.00000
	Cl                   2.00000

-----------------------------Solution composition------------------------------

	Elements           Molality       Moles

	Ca                4.000e+00   4.000e+00
	Cl                8.000e+00   8.000e+00

----------------------------Description of solution----------------------------

                                       pH  =   6.447      Charge balance
                                       pe  =  12.661      Adjusted to redox equilibrium
       Specific Conductance (uS/cm, 15 oC) = 122886
                          Density (g/cm3)  =   1.29448
                        Activity of water  =   0.796
                           Ionic strength  =   1.200e+01
                       Mass of water (kg)  =   1.000e+00
                 Total alkalinity (eq/kg)  =   8.834e-16
                    Total carbon (mol/kg)  =   0.000e+00
                       Total CO2 (mol/kg)  =   0.000e+00
                      Temperature (deg C)  =  15.00
                           Pressure (atm)  =  0.02
                  Electrical balance (eq)  =  -1.289e-12
 Percent error, 100*(Cat-|An|)/(Cat+|An|)  =  -0.00
                               Iterations  =  13
                                  Total H  = 1.110124e+02
                                  Total O  = 5.550622e+01

----------------------------Distribution of species----------------------------

                                            Log       Log         Log     mole V
   Species          Molality    Activity  Molality  Activity     Gamma   cm3/mol

   H+              5.113e-07   3.576e-07    -6.291    -6.447    -0.155      0.00
   OH-             2.246e-08   1.003e-08    -7.649    -7.999    -0.350     10.58
   H2O             5.551e+01   7.960e-01     1.744    -0.099     0.000     18.03
Ca            4.000e+00
   Ca+2            4.000e+00   3.456e+01     0.602     1.539     0.937    -15.00
   CaOH+           4.889e-07   1.277e-05    -6.311    -4.894     1.417     (0)  
Cl            8.000e+00
   Cl-             8.000e+00   5.407e+00     0.903     0.733    -0.170     21.81
H(0)          0.000e+00
   H2              0.000e+00   0.000e+00   -42.520   -41.320     1.200     20.00
O(0)          6.664e-15
   O2              3.332e-15   5.281e-14   -14.477   -13.277     1.200     35.00

------------------------------Saturation indices-------------------------------

	Phase               SI   log IAP   log K(288 K,   0 atm)

	H2(g)           -38.25    -41.32   -3.07  H2
	H2O(g)           -1.87     -0.10    1.77  H2O
	O2(g)           -10.47    -13.28   -2.81  O2


Reaction step 9.

Using solution 1.	
Using temperature 1.	
Using pressure 1.	
Using reaction 1.	

Reaction 1.	

	  6.000e+00 moles of the following reaction have been added:

	                 Relative
	Reactant            moles

	CaCl2                1.00000

	                 Relative
	Element             moles
	Ca                   1.00000
	Cl                   2.00000

-----------------------------Solution composition------------------------------

	Elements           Molality       Moles

	Ca                6.000e+00   6.000e+00
	Cl                1.200e+01   1.200e+01

----------------------------Description of solution----------------------------

                                       pH  =   6.357      Charge balance
                                       pe  =  13.075      Adjusted to redox equilibrium
       Specific Conductance (uS/cm, 15 oC) = 287036
                          Density (g/cm3)  =   1.39594
                        Activity of water  =   0.694
                           Ionic strength  =   1.800e+01
                       Mass of water (kg)  =   1.000e+00
                 Total alkalinity (eq/kg)  =   5.183e-16
                    Total carbon (mol/kg)  =   0.000e+00
                       Total CO2 (mol/kg)  =   0.000e+00
                      Temperature (deg C)  =  15.00
                           Pressure (atm)  =  0.01
                  Electrical balance (eq)  =   1.804e-09
 Percent error, 100*(Cat-|An|)/(Cat+|An|)  =   0.00
                               Iterations  =  12
                                  Total H  = 1.110124e+02
                                  Total O  = 5.550622e+01

----------------------------Distribution of species----------------------------

                                            Log       Log         Log     mole V
   Species          Molality    Activity  Molality  Activity     Gamma   cm3/mol

   H+              6.328e-07   4.399e-07    -6.199    -6.357    -0.158      0.00
   OH-             1.642e-08   7.109e-09    -7.785    -8.148    -0.364     17.23
   H2O             5.551e+01   6.940e-01     1.744    -0.159     0.000     18.03
Ca            6.000e+00
   Ca+2            6.000e+00   4.733e+02     0.778     2.675     1.897    -14.23
   CaOH+           6.163e-07   1.239e-04    -6.210    -3.907     2.303     (0)  
Cl            1.200e+01
   Cl-             1.200e+01   9.674e+00     1.079     0.986    -0.094     23.15
H(0)          0.000e+00
   H2              0.000e+00   0.000e+00   -43.768   -41.968     1.800     20.00
O(0)          2.520e-14
   O2              1.260e-14   7.950e-13   -13.900   -12.100     1.800     35.00

------------------------------Saturation indices-------------------------------

	Phase               SI   log IAP   log K(288 K,   0 atm)

	H2(g)           -38.90    -41.97   -3.07  H2
	H2O(g)           -1.93     -0.16    1.77  H2O
	O2(g)            -9.29    -12.10   -2.81  O2


------------------
End of simulation.
------------------

------------------------------------
Reading input data for simulation 3.
------------------------------------

	USE solution 1
	REACTION_TEMPERATURE
	 25.000000
	REACTION_PRESSURE
	 0.000000
	REACTION
	 CaCl2 1
	0 0.012560 0.020300 0.022000 0.022350 0.023900 0.032870 0.033400 0.037000 0.045000 0.046900 0.050000 0.050010 0.050500 0.059000 0.059400 0.066350 0.066700 0.068500 0.072400 0.081600 0.083200 0.083700 0.095830 0.097500 0.099900 0.100000 0.101000 0.120800 0.130100 0.130650 0.131700 0.140600 0.143500 0.143900 0.166600 0.178500 0.185400 0.189100 0.194800 0.196230 0.202300 0.204600 0.251500 0.253500 0.262900 0.263250 0.263300 0.292600 0.328000 0.333400 0.337000 0.337200 0.348800 0.359900 0.393600 0.400700 0.406000 0.416400 0.482300 0.486900 0.499300 0.500000 0.501900 0.502600 0.529500 0.554200 0.573400 0.584300 0.594200 0.604300 0.613900 0.666500 0.669100 0.669600 0.715400 0.775400 0.789000 0.852800 0.867300 0.908200 0.955900 0.992900 0.998900 1.000000 1.005000 1.019200 1.091300 1.157800 1.160700 1.189100 1.274900 1.322600 1.440000 1.475400 1.500100 1.520600 1.522700 1.523400 1.540600 1.666300 1.682500 1.710000 1.755700 1.757500 1.767800 1.781800 1.878800 1.903400 1.940700 1.948400 1.979000 1.999500 2.000000 2.006000 2.020900 2.092900 2.106300 2.116700 2.211500 2.226100 2.293400 2.410600 2.411200 2.500000 2.500400 2.507300 2.588500 2.598900 2.638000 2.787000 2.839100 2.909100 2.958300 3.000000 3.017000 3.036800 3.143800 3.226800 3.228500 3.333200 3.354500 3.444300 3.557900 3.594100 3.623700 3.722100 3.858900 3.909300 3.923500 3.957100 3.966100 4.000000 4.000000 4.058300 4.213700 4.640600 4.697600 4.762500 4.839400 4.858300 4.930500 4.980000 5.000400 5.065400 5.089900 5.359900 5.368300 5.519900 5.549800 5.618900 5.709700 5.868900 5.922200 5.998000 6.000000 6.150600 6.251400 6.285800 6.412400 6.464400 6.658400 6.666800 6.852500 7.076600 7.333000 7.341400 7.400000 7.458900 7.878300 
	USER_GRAPH
	 -headings 25.oC
	10 data 0, 18.712661, 17.130000, 17.314873, 18.967825, 16.365958, 19.358392, 19.847687, 18.140000, 18.358642, 17.830442, 19.787026, 19.346340, 19.459745, 18.211036, 18.833946, 19.521616, 18.640000, 19.340136, 18.726934, 19.270922, 18.650000, 20.364699, 19.821286, 19.782515, 19.657969, 20.048279, 19.865067, 18.810000, 18.660000, 20.164738, 19.767763, 20.516364, 20.040584, 19.797700, 20.470142, 20.294014, 20.072416, 20.246285, 20.307800, 20.623701, 19.460000, 20.208523, 20.716420, 20.943290, 19.850000, 21.009698, 20.834569, 20.852681, 21.341786, 21.537088, 21.264453, 20.240000, 21.380868, 21.346616, 21.238452, 21.544632, 20.560000, 21.490255, 21.905007, 22.041630, 22.426127, 21.920497, 22.072482, 21.851109, 22.037432, 22.284398, 22.212652, 22.281065, 22.205703, 22.480423, 22.362397, 22.596190, 22.669669, 22.632745, 22.786852, 23.041926, 22.983257, 23.204609, 23.337877, 23.404110, 23.623942, 24.116719, 23.693890, 23.620380, 23.780003, 23.758891, 23.967920, 24.111274, 24.142069, 24.243052, 24.466938, 24.585882, 24.889565, 24.973232, 25.011211, 25.151853, 25.139548, 25.110226, 25.152908, 25.402273, 25.497221, 25.527479, 25.723902, 25.692644, 25.694860, 25.688999, 25.949086, 25.995917, 26.076202, 26.100928, 26.186091, 26.144084, 26.147841, 26.255021, 26.304138, 26.399157, 26.449108, 26.443668, 26.672235, 26.670388, 26.864698, 27.071419, 27.064420, 27.400262, 27.232690, 27.258236, 27.408752, 27.418276, 27.475534, 27.750520, 27.852622, 27.938524, 28.054090, 28.320589, 28.151442, 28.416444, 28.372991, 28.525924, 28.510237, 28.606871, 28.736717, 28.840422, 29.048287, 29.066797, 29.111201, 29.275835, 29.459202, 29.549428, 29.593206, 29.620009, 29.638878, 30.130460, 29.380708, 29.774557, 29.989590, 30.608730, 30.572411, 30.784490, 30.869558, 30.895236, 31.010241, 31.027139, 30.961232, 31.200080, 31.227655, 31.606645, 31.604566, 31.839452, 31.874273, 31.976487, 32.102883, 32.326224, 32.397274, 32.504582, 33.241136, 32.721207, 32.851896, 32.935139, 33.094275, 33.164814, 33.425178, 32.948518, 33.704120, 34.004024, 34.361887, 34.363114, 33.832633, 34.516842, 35.096227, 
	20 dim d(190)
	30 read d(1), d(2), d(3), d(4), d(5), d(6), d(7), d(8), d(9), d(10), d(11), d(12), d(13), d(14), d(15), d(16), d(17), d(18), d(19), d(20), d(21), d(22), d(23), d(24), d(25), d(26), d(27), d(28), d(29), d(30), d(31), d(32), d(33), d(34), d(35), d(36), d(37), d(38), d(39), d(40), d(41), d(42), d(43), d(44), d(45), d(46), d(47), d(48), d(49), d(50), d(51), d(52), d(53), d(54), d(55), d(56), d(57), d(58), d(59), d(60), d(61), d(62), d(63), d(64), d(65), d(66), d(67), d(68), d(69), d(70), d(71), d(72), d(73), d(74), d(75), d(76), d(77), d(78), d(79), d(80), d(81), d(82), d(83), d(84), d(85), d(86), d(87), d(88), d(89), d(90), d(91), d(92), d(93), d(94), d(95), d(96), d(97), d(98), d(99), d(100), d(101), d(102), d(103), d(104), d(105), d(106), d(107), d(108), d(109), d(110), d(111), d(112), d(113), d(114), d(115), d(116), d(117), d(118), d(119), d(120), d(121), d(122), d(123), d(124), d(125), d(126), d(127), d(128), d(129), d(130), d(131), d(132), d(133), d(134), d(135), d(136), d(137), d(138), d(139), d(140), d(141), d(142), d(143), d(144), d(145), d(146), d(147), d(148), d(149), d(150), d(151), d(152), d(153), d(154), d(155), d(156), d(157), d(158), d(159), d(160), d(161), d(162), d(163), d(164), d(165), d(166), d(167), d(168), d(169), d(170), d(171), d(172), d(173), d(174), d(175), d(176), d(177), d(178), d(179), d(180), d(181), d(182), d(183), d(184), d(185), d(186), d(187), d(188), d(189), d(190),
	40 if step_no = 1 then put(rho, 10)
	50 if step_no > 1 then Vm = (1e3 + tot("Ca") * 110.986) / (tot("Ca") * rho) - 1e3 / (tot("Ca") * get(10))
	60 if step_no = 1 then dif = 0 else dif = Vm - d(step_no)
	62 if step_no = 1 then goto 90
	70 plot_xy tot("Ca"), d(step_no), line_w = 0, color = Red #aph_x tot("Ca") # dif, str$(tc), str$(pressure), str$(step_no + get(1))
	80 plot_xy tot("Ca"), Vm, symbol = None, color = Red #step_no = 264 then put(step_no + get(1), 1)
	90 end
	END
-----------------------------------------
Beginning of batch-reaction calculations.
-----------------------------------------

Reaction step 1.

Using solution 1.	
Using temperature 1.	
Using pressure 1.	
Using reaction 1.	

Reaction 1.	

	  0.000e+00 moles of the following reaction have been added:

	                 Relative
	Reactant            moles

	CaCl2                1.00000

	                 Relative
	Element             moles
	Ca                   1.00000
	Cl                   2.00000

-----------------------------Solution composition------------------------------

	Elements           Molality       Moles

	Pure water     

----------------------------Description of solution----------------------------

                                       pH  =   6.997      Charge balance
                                       pe  =  11.302      Adjusted to redox equilibrium
       Specific Conductance (uS/cm, 25 oC) = 0
                          Density (g/cm3)  =   0.99700
                        Activity of water  =   1.000
                           Ionic strength  =   1.008e-07
                       Mass of water (kg)  =   1.000e+00
                 Total alkalinity (eq/kg)  =   3.541e-17
                    Total carbon (mol/kg)  =   0.000e+00
                       Total CO2 (mol/kg)  =   0.000e+00
                      Temperature (deg C)  =  25.00
                           Pressure (atm)  =  0.03
                  Electrical balance (eq)  =  -3.541e-17
 Percent error, 100*(Cat-|An|)/(Cat+|An|)  =  -0.00
                               Iterations  =  10
                                  Total H  = 1.110124e+02
                                  Total O  = 5.550622e+01

----------------------------Distribution of species----------------------------

                                            Log       Log         Log     mole V
   Species          Molality    Activity  Molality  Activity     Gamma   cm3/mol

   OH-             1.008e-07   1.008e-07    -6.997    -6.997    -0.000     -3.76
   H+              1.008e-07   1.008e-07    -6.997    -6.997    -0.000      0.00
   H2O             5.551e+01   1.000e+00     1.744    -0.000     0.000     18.07
H(0)          3.579e-40
   H2              1.790e-40   1.790e-40   -39.747   -39.747     0.000     20.00
O(0)          2.603e-13
   O2              1.302e-13   1.302e-13   -12.886   -12.886     0.000     35.00

------------------------------Saturation indices-------------------------------

	Phase               SI   log IAP   log K(298 K,   0 atm)

	H2(g)           -36.65    -39.75   -3.10  H2
	H2O(g)           -1.50     -0.00    1.50  H2O
	O2(g)            -9.99    -12.89   -2.89  O2


Reaction step 2.

Using solution 1.	
Using temperature 1.	
Using pressure 1.	
Using reaction 1.	

Reaction 1.	

	  1.256e-02 moles of the following reaction have been added:

	                 Relative
	Reactant            moles

	CaCl2                1.00000

	                 Relative
	Element             moles
	Ca                   1.00000
	Cl                   2.00000

-----------------------------Solution composition------------------------------

	Elements           Molality       Moles

	Ca                1.256e-02   1.256e-02
	Cl                2.512e-02   2.512e-02

----------------------------Description of solution----------------------------

                                       pH  =   6.966      Charge balance
                                       pe  =  11.343      Adjusted to redox equilibrium
       Specific Conductance (uS/cm, 25 oC) = 1713
                          Density (g/cm3)  =   0.99816
                        Activity of water  =   0.999
                           Ionic strength  =   3.768e-02
                       Mass of water (kg)  =   1.000e+00
                 Total alkalinity (eq/kg)  =   3.538e-17
                    Total carbon (mol/kg)  =   0.000e+00
                       Total CO2 (mol/kg)  =   0.000e+00
                      Temperature (deg C)  =  25.00
                           Pressure (atm)  =  0.03
                  Electrical balance (eq)  =  -4.056e-17
 Percent error, 100*(Cat-|An|)/(Cat+|An|)  =  -0.00
                               Iterations  =  10
                                  Total H  = 1.110124e+02
                                  Total O  = 5.550622e+01

----------------------------Distribution of species----------------------------

                                            Log       Log         Log     mole V
   Species          Molality    Activity  Molality  Activity     Gamma   cm3/mol

   H+              1.249e-07   1.080e-07    -6.904    -6.966    -0.063      0.00
   OH-             1.132e-07   9.393e-08    -6.946    -7.027    -0.081     -3.55
   H2O             5.551e+01   9.994e-01     1.744    -0.000     0.000     18.07
Ca            1.256e-02
   Ca+2            1.256e-02   6.381e-03    -1.901    -2.195    -0.294    -17.86
   CaOH+           1.170e-08   9.796e-09    -7.932    -8.009    -0.077     (0)  
Cl            2.512e-02
   Cl-             2.512e-02   2.088e-02    -1.600    -1.680    -0.080     18.25
H(0)          3.378e-40
   H2              1.689e-40   1.704e-40   -39.772   -39.769     0.004     20.00
O(0)          2.844e-13
   O2              1.422e-13   1.434e-13   -12.847   -12.843     0.004     35.00

------------------------------Saturation indices-------------------------------

	Phase               SI   log IAP   log K(298 K,   0 atm)

	H2(g)           -36.67    -39.77   -3.10  H2
	H2O(g)           -1.50     -0.00    1.50  H2O
	O2(g)            -9.95    -12.84   -2.89  O2


Reaction step 3.

Using solution 1.	
Using temperature 1.	
Using pressure 1.	
Using reaction 1.	

Reaction 1.	

	  2.030e-02 moles of the following reaction have been added:

	                 Relative
	Reactant            moles

	CaCl2                1.00000

	                 Relative
	Element             moles
	Ca                   1.00000
	Cl                   2.00000

-----------------------------Solution composition------------------------------

	Elements           Molality       Moles

	Ca                2.030e-02   2.030e-02
	Cl                4.060e-02   4.060e-02

----------------------------Description of solution----------------------------

                                       pH  =   6.955      Charge balance
                                       pe  =  11.360      Adjusted to redox equilibrium
       Specific Conductance (uS/cm, 25 oC) = 2706
                          Density (g/cm3)  =   0.99886
                        Activity of water  =   0.999
                           Ionic strength  =   6.090e-02
                       Mass of water (kg)  =   1.000e+00
                 Total alkalinity (eq/kg)  =   3.585e-17
                    Total carbon (mol/kg)  =   0.000e+00
                       Total CO2 (mol/kg)  =   0.000e+00
                      Temperature (deg C)  =  25.00
                           Pressure (atm)  =  0.03
                  Electrical balance (eq)  =   1.212e-16
 Percent error, 100*(Cat-|An|)/(Cat+|An|)  =   0.00
                               Iterations  =  10
                                  Total H  = 1.110124e+02
                                  Total O  = 5.550622e+01

----------------------------Distribution of species----------------------------

                                            Log       Log         Log     mole V
   Species          Molality    Activity  Molality  Activity     Gamma   cm3/mol

   H+              1.313e-07   1.110e-07    -6.882    -6.955    -0.073      0.00
   OH-             1.145e-07   9.136e-08    -6.941    -7.039    -0.098     -3.47
   H2O             5.551e+01   9.990e-01     1.744    -0.000     0.000     18.07
Ca            2.030e-02
   Ca+2            2.030e-02   9.105e-03    -1.693    -2.041    -0.348    -17.76
   CaOH+           1.679e-08   1.359e-08    -7.775    -7.867    -0.092     (0)  
Cl            4.060e-02
   Cl-             4.060e-02   3.246e-02    -1.391    -1.489    -0.097     18.30
H(0)          3.276e-40
   H2              1.638e-40   1.661e-40   -39.786   -39.780     0.006     20.00
O(0)          2.973e-13
   O2              1.486e-13   1.507e-13   -12.828   -12.822     0.006     35.00

------------------------------Saturation indices-------------------------------

	Phase               SI   log IAP   log K(298 K,   0 atm)

	H2(g)           -36.68    -39.78   -3.10  H2
	H2O(g)           -1.50     -0.00    1.50  H2O
	O2(g)            -9.93    -12.82   -2.89  O2


Reaction step 4.

Using solution 1.	
Using temperature 1.	
Using pressure 1.	
Using reaction 1.	

Reaction 1.	

	  2.200e-02 moles of the following reaction have been added:

	                 Relative
	Reactant            moles

	CaCl2                1.00000

	                 Relative
	Element             moles
	Ca                   1.00000
	Cl                   2.00000

-----------------------------Solution composition------------------------------

	Elements           Molality       Moles

	Ca                2.200e-02   2.200e-02
	Cl                4.400e-02   4.400e-02

----------------------------Description of solution----------------------------

                                       pH  =   6.952      Charge balance
                                       pe  =  11.364      Adjusted to redox equilibrium
       Specific Conductance (uS/cm, 25 oC) = 2921
                          Density (g/cm3)  =   0.99902
                        Activity of water  =   0.999
                           Ionic strength  =   6.600e-02
                       Mass of water (kg)  =   1.000e+00
                 Total alkalinity (eq/kg)  =   3.599e-17
                    Total carbon (mol/kg)  =   0.000e+00
                       Total CO2 (mol/kg)  =   0.000e+00
                      Temperature (deg C)  =  25.00
                           Pressure (atm)  =  0.03
                  Electrical balance (eq)  =   2.919e-16
 Percent error, 100*(Cat-|An|)/(Cat+|An|)  =   0.00
                               Iterations  =  10
                                  Total H  = 1.110124e+02
                                  Total O  = 5.550622e+01

----------------------------Distribution of species----------------------------

                                            Log       Log         Log     mole V
   Species          Molality    Activity  Molality  Activity     Gamma   cm3/mol

   H+              1.325e-07   1.116e-07    -6.878    -6.952    -0.074      0.00
   OH-             1.147e-07   9.087e-08    -6.940    -7.042    -0.101     -3.46
   H2O             5.551e+01   9.989e-01     1.744    -0.000     0.000     18.07
Ca            2.200e-02
   Ca+2            2.200e-02   9.654e-03    -1.658    -2.015    -0.358    -17.74
   CaOH+           1.781e-08   1.434e-08    -7.749    -7.844    -0.094     (0)  
Cl            4.400e-02
   Cl-             4.400e-02   3.494e-02    -1.357    -1.457    -0.100     18.31
H(0)          3.245e-40
   H2              1.622e-40   1.647e-40   -39.790   -39.783     0.007     20.00
O(0)          3.019e-13
   O2              1.510e-13   1.533e-13   -12.821   -12.815     0.007     35.00

------------------------------Saturation indices-------------------------------

	Phase               SI   log IAP   log K(298 K,   0 atm)

	H2(g)           -36.68    -39.78   -3.10  H2
	H2O(g)           -1.50     -0.00    1.50  H2O
	O2(g)            -9.92    -12.81   -2.89  O2


Reaction step 5.

Using solution 1.	
Using temperature 1.	
Using pressure 1.	
Using reaction 1.	

Reaction 1.	

	  2.235e-02 moles of the following reaction have been added:

	                 Relative
	Reactant            moles

	CaCl2                1.00000

	                 Relative
	Element             moles
	Ca                   1.00000
	Cl                   2.00000

-----------------------------Solution composition------------------------------

	Elements           Molality       Moles

	Ca                2.235e-02   2.235e-02
	Cl                4.470e-02   4.470e-02

----------------------------Description of solution----------------------------

                                       pH  =   6.952      Charge balance
                                       pe  =  11.366      Adjusted to redox equilibrium
       Specific Conductance (uS/cm, 25 oC) = 2965
                          Density (g/cm3)  =   0.99905
                        Activity of water  =   0.999
                           Ionic strength  =   6.705e-02
                       Mass of water (kg)  =   1.000e+00
                 Total alkalinity (eq/kg)  =   3.583e-17
                    Total carbon (mol/kg)  =   0.000e+00
                       Total CO2 (mol/kg)  =   0.000e+00
                      Temperature (deg C)  =  25.00
                           Pressure (atm)  =  0.03
                  Electrical balance (eq)  =   3.506e-16
 Percent error, 100*(Cat-|An|)/(Cat+|An|)  =   0.00
                               Iterations  =  10
                                  Total H  = 1.110124e+02
                                  Total O  = 5.550622e+01

----------------------------Distribution of species----------------------------

                                            Log       Log         Log     mole V
   Species          Molality    Activity  Molality  Activity     Gamma   cm3/mol

   H+              1.328e-07   1.117e-07    -6.877    -6.952    -0.075      0.00
   OH-             1.147e-07   9.077e-08    -6.940    -7.042    -0.102     -3.46
   H2O             5.551e+01   9.989e-01     1.744    -0.000     0.000     18.07
Ca            2.235e-02
   Ca+2            2.235e-02   9.765e-03    -1.651    -2.010    -0.360    -17.73
   CaOH+           1.801e-08   1.449e-08    -7.744    -7.839    -0.095     (0)  
Cl            4.470e-02
   Cl-             4.470e-02   3.544e-02    -1.350    -1.450    -0.101     18.31
H(0)          3.234e-40
   H2              1.617e-40   1.642e-40   -39.791   -39.785     0.007     20.00
O(0)          3.037e-13
   O2              1.518e-13   1.542e-13   -12.819   -12.812     0.007     35.00

------------------------------Saturation indices-------------------------------

	Phase               SI   log IAP   log K(298 K,   0 atm)

	H2(g)           -36.68    -39.78   -3.10  H2
	H2O(g)           -1.50     -0.00    1.50  H2O
	O2(g)            -9.92    -12.81   -2.89  O2


Reaction step 6.

Using solution 1.	
Using temperature 1.	
Using pressure 1.	
Using reaction 1.	

Reaction 1.	

	  2.390e-02 moles of the following reaction have been added:

	                 Relative
	Reactant            moles

	CaCl2                1.00000

	                 Relative
	Element             moles
	Ca                   1.00000
	Cl                   2.00000

-----------------------------Solution composition------------------------------

	Elements           Molality       Moles

	Ca                2.390e-02   2.390e-02
	Cl                4.780e-02   4.780e-02

----------------------------Description of solution----------------------------

                                       pH  =   6.950      Charge balance
                                       pe  =  11.370      Adjusted to redox equilibrium
       Specific Conductance (uS/cm, 25 oC) = 3159
                          Density (g/cm3)  =   0.99919
                        Activity of water  =   0.999
                           Ionic strength  =   7.170e-02
                       Mass of water (kg)  =   1.000e+00
                 Total alkalinity (eq/kg)  =   3.502e-17
                    Total carbon (mol/kg)  =   0.000e+00
                       Total CO2 (mol/kg)  =   0.000e+00
                      Temperature (deg C)  =  25.00
                           Pressure (atm)  =  0.03
                  Electrical balance (eq)  =   6.813e-16
 Percent error, 100*(Cat-|An|)/(Cat+|An|)  =   0.00
                               Iterations  =  10
                                  Total H  = 1.110124e+02
                                  Total O  = 5.550622e+01

----------------------------Distribution of species----------------------------

                                            Log       Log         Log     mole V
   Species          Molality    Activity  Molality  Activity     Gamma   cm3/mol

   H+              1.338e-07   1.123e-07    -6.874    -6.950    -0.076      0.00
   OH-             1.149e-07   9.034e-08    -6.940    -7.044    -0.104     -3.44
   H2O             5.551e+01   9.988e-01     1.744    -0.001     0.000     18.07
Ca            2.390e-02
   Ca+2            2.390e-02   1.025e-02    -1.622    -1.989    -0.368    -17.72
   CaOH+           1.891e-08   1.514e-08    -7.723    -7.820    -0.097     (0)  
Cl            4.780e-02
   Cl-             4.780e-02   3.768e-02    -1.321    -1.424    -0.103     18.32
H(0)          3.195e-40
   H2              1.597e-40   1.624e-40   -39.797   -39.789     0.007     20.00
O(0)          3.102e-13
   O2              1.551e-13   1.577e-13   -12.809   -12.802     0.007     35.00

------------------------------Saturation indices-------------------------------

	Phase               SI   log IAP   log K(298 K,   0 atm)

	H2(g)           -36.69    -39.79   -3.10  H2
	H2O(g)           -1.50     -0.00    1.50  H2O
	O2(g)            -9.91    -12.80   -2.89  O2


Reaction step 7.

Using solution 1.	
Using temperature 1.	
Using pressure 1.	
Using reaction 1.	

Reaction 1.	

	  3.287e-02 moles of the following reaction have been added:

	                 Relative
	Reactant            moles

	CaCl2                1.00000

	                 Relative
	Element             moles
	Ca                   1.00000
	Cl                   2.00000

-----------------------------Solution composition------------------------------

	Elements           Molality       Moles

	Ca                3.287e-02   3.287e-02
	Cl                6.574e-02   6.574e-02

----------------------------Description of solution----------------------------

                                       pH  =   6.939      Charge balance
                                       pe  =  11.385      Adjusted to redox equilibrium
       Specific Conductance (uS/cm, 25 oC) = 4268
                          Density (g/cm3)  =   1.00001
                        Activity of water  =   0.998
                           Ionic strength  =   9.861e-02
                       Mass of water (kg)  =   1.000e+00
                 Total alkalinity (eq/kg)  =   2.581e-17
                    Total carbon (mol/kg)  =   0.000e+00
                       Total CO2 (mol/kg)  =   0.000e+00
                      Temperature (deg C)  =  25.00
                           Pressure (atm)  =  0.03
                  Electrical balance (eq)  =   1.385e-14
 Percent error, 100*(Cat-|An|)/(Cat+|An|)  =   0.00
                               Iterations  =  10
                                  Total H  = 1.110124e+02
                                  Total O  = 5.550622e+01

----------------------------Distribution of species----------------------------

                                            Log       Log         Log     mole V
   Species          Molality    Activity  Molality  Activity     Gamma   cm3/mol

   H+              1.393e-07   1.150e-07    -6.856    -6.939    -0.083      0.00
   OH-             1.155e-07   8.812e-08    -6.937    -7.055    -0.118     -3.37
   H2O             5.551e+01   9.983e-01     1.744    -0.001     0.000     18.07
Ca            3.287e-02
   Ca+2            3.287e-02   1.289e-02    -1.483    -1.890    -0.406    -17.64
   CaOH+           2.375e-08   1.857e-08    -7.624    -7.731    -0.107     (0)  
Cl            6.574e-02
   Cl-             6.574e-02   5.031e-02    -1.182    -1.298    -0.116     18.36
H(0)          3.111e-40
   H2              1.555e-40   1.591e-40   -39.808   -39.798     0.010     20.00
O(0)          3.208e-13
   O2              1.604e-13   1.641e-13   -12.795   -12.785     0.010     35.00

------------------------------Saturation indices-------------------------------

	Phase               SI   log IAP   log K(298 K,   0 atm)

	H2(g)           -36.70    -39.80   -3.10  H2
	H2O(g)           -1.50     -0.00    1.50  H2O
	O2(g)            -9.89    -12.78   -2.89  O2


Reaction step 8.

Using solution 1.	
Using temperature 1.	
Using pressure 1.	
Using reaction 1.	

Reaction 1.	

	  3.340e-02 moles of the following reaction have been added:

	                 Relative
	Reactant            moles

	CaCl2                1.00000

	                 Relative
	Element             moles
	Ca                   1.00000
	Cl                   2.00000

-----------------------------Solution composition------------------------------

	Elements           Molality       Moles

	Ca                3.340e-02   3.340e-02
	Cl                6.680e-02   6.680e-02

----------------------------Description of solution----------------------------

                                       pH  =   6.939      Charge balance
                                       pe  =  11.385      Adjusted to redox equilibrium
       Specific Conductance (uS/cm, 25 oC) = 4333
                          Density (g/cm3)  =   1.00006
                        Activity of water  =   0.998
                           Ionic strength  =   1.002e-01
                       Mass of water (kg)  =   1.000e+00
                 Total alkalinity (eq/kg)  =   4.435e-17
                    Total carbon (mol/kg)  =   0.000e+00
                       Total CO2 (mol/kg)  =   0.000e+00
                      Temperature (deg C)  =  25.00
                           Pressure (atm)  =  0.03
                  Electrical balance (eq)  =   1.594e-14
 Percent error, 100*(Cat-|An|)/(Cat+|An|)  =   0.00
                               Iterations  =  10
                                  Total H  = 1.110124e+02
                                  Total O  = 5.550622e+01

----------------------------Distribution of species----------------------------

                                            Log       Log         Log     mole V
   Species          Molality    Activity  Molality  Activity     Gamma   cm3/mol

   H+              1.396e-07   1.152e-07    -6.855    -6.939    -0.083      0.00
   OH-             1.156e-07   8.800e-08    -6.937    -7.056    -0.118     -3.37
   H2O             5.551e+01   9.983e-01     1.744    -0.001     0.000     18.07
Ca            3.340e-02
   Ca+2            3.340e-02   1.304e-02    -1.476    -1.885    -0.408    -17.63
   CaOH+           2.402e-08   1.876e-08    -7.620    -7.727    -0.107     (0)  
Cl            6.680e-02
   Cl-             6.680e-02   5.104e-02    -1.175    -1.292    -0.117     18.37
H(0)          3.111e-40
   H2              1.556e-40   1.592e-40   -39.808   -39.798     0.010     20.00
O(0)          3.204e-13
   O2              1.602e-13   1.639e-13   -12.795   -12.785     0.010     35.00

------------------------------Saturation indices-------------------------------

	Phase               SI   log IAP   log K(298 K,   0 atm)

	H2(g)           -36.70    -39.80   -3.10  H2
	H2O(g)           -1.50     -0.00    1.50  H2O
	O2(g)            -9.89    -12.79   -2.89  O2


Reaction step 9.

Using solution 1.	
Using temperature 1.	
Using pressure 1.	
Using reaction 1.	

Reaction 1.	

	  3.700e-02 moles of the following reaction have been added:

	                 Relative
	Reactant            moles

	CaCl2                1.00000

	                 Relative
	Element             moles
	Ca                   1.00000
	Cl                   2.00000

-----------------------------Solution composition------------------------------

	Elements           Molality       Moles

	Ca                3.700e-02   3.700e-02
	Cl                7.400e-02   7.400e-02

----------------------------Description of solution----------------------------

                                       pH  =   6.935      Charge balance
                                       pe  =  11.390      Adjusted to redox equilibrium
       Specific Conductance (uS/cm, 25 oC) = 4772
                          Density (g/cm3)  =   1.00039
                        Activity of water  =   0.998
                           Ionic strength  =   1.110e-01
                       Mass of water (kg)  =   1.000e+00
                 Total alkalinity (eq/kg)  =   3.417e-17
                    Total carbon (mol/kg)  =   0.000e+00
                       Total CO2 (mol/kg)  =   0.000e+00
                      Temperature (deg C)  =  25.00
                           Pressure (atm)  =  0.03
                  Electrical balance (eq)  =   3.904e-14
 Percent error, 100*(Cat-|An|)/(Cat+|An|)  =   0.00
                               Iterations  =  10
                                  Total H  = 1.110124e+02
                                  Total O  = 5.550622e+01

----------------------------Distribution of species----------------------------

                                            Log       Log         Log     mole V
   Species          Molality    Activity  Molality  Activity     Gamma   cm3/mol

   H+              1.415e-07   1.162e-07    -6.849    -6.935    -0.086      0.00
   OH-             1.157e-07   8.722e-08    -6.937    -7.059    -0.123     -3.34
   H2O             5.551e+01   9.981e-01     1.744    -0.001     0.000     18.07
Ca            3.700e-02
   Ca+2            3.700e-02   1.403e-02    -1.432    -1.853    -0.421    -17.60
   CaOH+           2.580e-08   2.000e-08    -7.588    -7.699    -0.110     (0)  
Cl            7.400e-02
   Cl-             7.400e-02   5.598e-02    -1.131    -1.252    -0.121     18.38
H(0)          3.099e-40
   H2              1.549e-40   1.589e-40   -39.810   -39.799     0.011     20.00
O(0)          3.205e-13
   O2              1.602e-13   1.644e-13   -12.795   -12.784     0.011     35.00

------------------------------Saturation indices-------------------------------

	Phase               SI   log IAP   log K(298 K,   0 atm)

	H2(g)           -36.70    -39.80   -3.10  H2
	H2O(g)           -1.50     -0.00    1.50  H2O
	O2(g)            -9.89    -12.78   -2.89  O2


Reaction step 10.

Using solution 1.	
Using temperature 1.	
Using pressure 1.	
Using reaction 1.	

Reaction 1.	

	  4.500e-02 moles of the following reaction have been added:

	                 Relative
	Reactant            moles

	CaCl2                1.00000

	                 Relative
	Element             moles
	Ca                   1.00000
	Cl                   2.00000

-----------------------------Solution composition------------------------------

	Elements           Molality       Moles

	Ca                4.500e-02   4.500e-02
	Cl                9.000e-02   9.000e-02

----------------------------Description of solution----------------------------

                                       pH  =   6.927      Charge balance
                                       pe  =  11.410      Adjusted to redox equilibrium
       Specific Conductance (uS/cm, 25 oC) = 5736
                          Density (g/cm3)  =   1.00111
                        Activity of water  =   0.998
                           Ionic strength  =   1.350e-01
                       Mass of water (kg)  =   1.000e+00
                 Total alkalinity (eq/kg)  =   3.170e-17
                    Total carbon (mol/kg)  =   0.000e+00
                       Total CO2 (mol/kg)  =   0.000e+00
                      Temperature (deg C)  =  25.00
                           Pressure (atm)  =  0.03
                  Electrical balance (eq)  =   2.001e-13
 Percent error, 100*(Cat-|An|)/(Cat+|An|)  =   0.00
                               Iterations  =  10
                                  Total H  = 1.110124e+02
                                  Total O  = 5.550622e+01

----------------------------Distribution of species----------------------------

                                            Log       Log         Log     mole V
   Species          Molality    Activity  Molality  Activity     Gamma   cm3/mol

   H+              1.455e-07   1.183e-07    -6.837    -6.927    -0.090      0.00
   OH-             1.160e-07   8.563e-08    -6.936    -7.067    -0.132     -3.29
   H2O             5.551e+01   9.977e-01     1.744    -0.001     0.000     18.07
Ca            4.500e-02
   Ca+2            4.500e-02   1.614e-02    -1.347    -1.792    -0.445    -17.55
   CaOH+           2.953e-08   2.259e-08    -7.530    -7.646    -0.116     (0)  
Cl            9.000e-02
   Cl-             9.000e-02   6.676e-02    -1.046    -1.175    -0.130     18.41
H(0)          2.906e-40
   H2              1.453e-40   1.499e-40   -39.838   -39.824     0.014     20.00
O(0)          3.580e-13
   O2              1.790e-13   1.847e-13   -12.747   -12.734     0.014     35.00

------------------------------Saturation indices-------------------------------

	Phase               SI   log IAP   log K(298 K,   0 atm)

	H2(g)           -36.72    -39.82   -3.10  H2
	H2O(g)           -1.50     -0.00    1.50  H2O
	O2(g)            -9.84    -12.73   -2.89  O2


Reaction step 11.

Using solution 1.	
Using temperature 1.	
Using pressure 1.	
Using reaction 1.	

Reaction 1.	

	  4.690e-02 moles of the following reaction have been added:

	                 Relative
	Reactant            moles

	CaCl2                1.00000

	                 Relative
	Element             moles
	Ca                   1.00000
	Cl                   2.00000

-----------------------------Solution composition------------------------------

	Elements           Molality       Moles

	Ca                4.690e-02   4.690e-02
	Cl                9.380e-02   9.380e-02

----------------------------Description of solution----------------------------

                                       pH  =   6.925      Charge balance
                                       pe  =  11.411      Adjusted to redox equilibrium
       Specific Conductance (uS/cm, 25 oC) = 5963
                          Density (g/cm3)  =   1.00129
                        Activity of water  =   0.998
                           Ionic strength  =   1.407e-01
                       Mass of water (kg)  =   1.000e+00
                 Total alkalinity (eq/kg)  =   3.629e-17
                    Total carbon (mol/kg)  =   0.000e+00
                       Total CO2 (mol/kg)  =   0.000e+00
                      Temperature (deg C)  =  25.00
                           Pressure (atm)  =  0.03
                  Electrical balance (eq)  =   2.789e-13
 Percent error, 100*(Cat-|An|)/(Cat+|An|)  =   0.00
                               Iterations  =  10
                                  Total H  = 1.110124e+02
                                  Total O  = 5.550622e+01

----------------------------Distribution of species----------------------------

                                            Log       Log         Log     mole V
   Species          Molality    Activity  Molality  Activity     Gamma   cm3/mol

   H+              1.464e-07   1.188e-07    -6.834    -6.925    -0.091      0.00
   OH-             1.160e-07   8.528e-08    -6.935    -7.069    -0.134     -3.28
   H2O             5.551e+01   9.976e-01     1.744    -0.001     0.000     18.07
Ca            4.690e-02
   Ca+2            4.690e-02   1.663e-02    -1.329    -1.779    -0.450    -17.54
   CaOH+           3.038e-08   2.317e-08    -7.517    -7.635    -0.118     (0)  
Cl            9.380e-02
   Cl-             9.380e-02   6.929e-02    -1.028    -1.159    -0.132     18.42
H(0)          2.914e-40
   H2              1.457e-40   1.505e-40   -39.837   -39.823     0.014     20.00
O(0)          3.548e-13
   O2              1.774e-13   1.832e-13   -12.751   -12.737     0.014     35.00

------------------------------Saturation indices-------------------------------

	Phase               SI   log IAP   log K(298 K,   0 atm)

	H2(g)           -36.72    -39.82   -3.10  H2
	H2O(g)           -1.50     -0.00    1.50  H2O
	O2(g)            -9.84    -12.74   -2.89  O2


Reaction step 12.

Using solution 1.	
Using temperature 1.	
Using pressure 1.	
Using reaction 1.	

Reaction 1.	

	  5.000e-02 moles of the following reaction have been added:

	                 Relative
	Reactant            moles

	CaCl2                1.00000

	                 Relative
	Element             moles
	Ca                   1.00000
	Cl                   2.00000

-----------------------------Solution composition------------------------------

	Elements           Molality       Moles

	Ca                5.000e-02   5.000e-02
	Cl                1.000e-01   1.000e-01

----------------------------Description of solution----------------------------

                                       pH  =   6.922      Charge balance
                                       pe  =  11.419      Adjusted to redox equilibrium
       Specific Conductance (uS/cm, 25 oC) = 6332
                          Density (g/cm3)  =   1.00157
                        Activity of water  =   0.997
                           Ionic strength  =   1.500e-01
                       Mass of water (kg)  =   1.000e+00
                 Total alkalinity (eq/kg)  =   3.720e-17
                    Total carbon (mol/kg)  =   0.000e+00
                       Total CO2 (mol/kg)  =   0.000e+00
                      Temperature (deg C)  =  25.00
                           Pressure (atm)  =  0.03
                  Electrical balance (eq)  =   4.616e-13
 Percent error, 100*(Cat-|An|)/(Cat+|An|)  =   0.00
                               Iterations  =  10
                                  Total H  = 1.110124e+02
                                  Total O  = 5.550622e+01

----------------------------Distribution of species----------------------------

                                            Log       Log         Log     mole V
   Species          Molality    Activity  Molality  Activity     Gamma   cm3/mol

   H+              1.478e-07   1.196e-07    -6.830    -6.922    -0.092      0.00
   OH-             1.161e-07   8.472e-08    -6.935    -7.072    -0.137     -3.25
   H2O             5.551e+01   9.974e-01     1.744    -0.001     0.000     18.07
Ca            5.000e-02
   Ca+2            5.000e-02   1.741e-02    -1.301    -1.759    -0.458    -17.52
   CaOH+           3.173e-08   2.410e-08    -7.498    -7.618    -0.119     (0)  
Cl            1.000e-01
   Cl-             1.000e-01   7.338e-02    -1.000    -1.134    -0.134     18.43
H(0)          2.840e-40
   H2              1.420e-40   1.470e-40   -39.848   -39.833     0.015     20.00
O(0)          3.708e-13
   O2              1.854e-13   1.919e-13   -12.732   -12.717     0.015     35.00

------------------------------Saturation indices-------------------------------

	Phase               SI   log IAP   log K(298 K,   0 atm)

	H2(g)           -36.73    -39.83   -3.10  H2
	H2O(g)           -1.50     -0.00    1.50  H2O
	O2(g)            -9.82    -12.72   -2.89  O2


Reaction step 13.

Using solution 1.	
Using temperature 1.	
Using pressure 1.	
Using reaction 1.	

Reaction 1.	

	  5.001e-02 moles of the following reaction have been added:

	                 Relative
	Reactant            moles

	CaCl2                1.00000

	                 Relative
	Element             moles
	Ca                   1.00000
	Cl                   2.00000

-----------------------------Solution composition------------------------------

	Elements           Molality       Moles

	Ca                5.001e-02   5.001e-02
	Cl                1.000e-01   1.000e-01

----------------------------Description of solution----------------------------

                                       pH  =   6.922      Charge balance
                                       pe  =  11.419      Adjusted to redox equilibrium
       Specific Conductance (uS/cm, 25 oC) = 6333
                          Density (g/cm3)  =   1.00157
                        Activity of water  =   0.997
                           Ionic strength  =   1.500e-01
                       Mass of water (kg)  =   1.000e+00
                 Total alkalinity (eq/kg)  =   3.428e-17
                    Total carbon (mol/kg)  =   0.000e+00
                       Total CO2 (mol/kg)  =   0.000e+00
                      Temperature (deg C)  =  25.00
                           Pressure (atm)  =  0.03
                  Electrical balance (eq)  =   4.623e-13
 Percent error, 100*(Cat-|An|)/(Cat+|An|)  =   0.00
                               Iterations  =  10
                                  Total H  = 1.110124e+02
                                  Total O  = 5.550622e+01

----------------------------Distribution of species----------------------------

                                            Log       Log         Log     mole V
   Species          Molality    Activity  Molality  Activity     Gamma   cm3/mol

   H+              1.478e-07   1.196e-07    -6.830    -6.922    -0.092      0.00
   OH-             1.161e-07   8.472e-08    -6.935    -7.072    -0.137     -3.25
   H2O             5.551e+01   9.974e-01     1.744    -0.001     0.000     18.07
Ca            5.001e-02
   Ca+2            5.001e-02   1.741e-02    -1.301    -1.759    -0.458    -17.52
   CaOH+           3.174e-08   2.411e-08    -7.498    -7.618    -0.119     (0)  
Cl            1.000e-01
   Cl-             1.000e-01   7.339e-02    -1.000    -1.134    -0.134     18.43
H(0)          2.839e-40
   H2              1.420e-40   1.470e-40   -39.848   -39.833     0.015     20.00
O(0)          3.711e-13
   O2              1.855e-13   1.921e-13   -12.732   -12.717     0.015     35.00

------------------------------Saturation indices-------------------------------

	Phase               SI   log IAP   log K(298 K,   0 atm)

	H2(g)           -36.73    -39.83   -3.10  H2
	H2O(g)           -1.50     -0.00    1.50  H2O
	O2(g)            -9.82    -12.72   -2.89  O2


Reaction step 14.

Using solution 1.	
Using temperature 1.	
Using pressure 1.	
Using reaction 1.	

Reaction 1.	

	  5.050e-02 moles of the following reaction have been added:

	                 Relative
	Reactant            moles

	CaCl2                1.00000

	                 Relative
	Element             moles
	Ca                   1.00000
	Cl                   2.00000

-----------------------------Solution composition------------------------------

	Elements           Molality       Moles

	Ca                5.050e-02   5.050e-02
	Cl                1.010e-01   1.010e-01

----------------------------Description of solution----------------------------

                                       pH  =   6.922      Charge balance
                                       pe  =  11.420      Adjusted to redox equilibrium
       Specific Conductance (uS/cm, 25 oC) = 6391
                          Density (g/cm3)  =   1.00161
                        Activity of water  =   0.997
                           Ionic strength  =   1.515e-01
                       Mass of water (kg)  =   1.000e+00
                 Total alkalinity (eq/kg)  =   3.161e-17
                    Total carbon (mol/kg)  =   0.000e+00
                       Total CO2 (mol/kg)  =   0.000e+00
                      Temperature (deg C)  =  25.00
                           Pressure (atm)  =  0.03
                  Electrical balance (eq)  =   4.987e-13
 Percent error, 100*(Cat-|An|)/(Cat+|An|)  =   0.00
                               Iterations  =  10
                                  Total H  = 1.110124e+02
                                  Total O  = 5.550622e+01

----------------------------Distribution of species----------------------------

                                            Log       Log         Log     mole V
   Species          Molality    Activity  Molality  Activity     Gamma   cm3/mol

   H+              1.480e-07   1.197e-07    -6.830    -6.922    -0.092      0.00
   OH-             1.161e-07   8.464e-08    -6.935    -7.072    -0.137     -3.25
   H2O             5.551e+01   9.974e-01     1.744    -0.001     0.000     18.07
Ca            5.050e-02
   Ca+2            5.050e-02   1.753e-02    -1.297    -1.756    -0.459    -17.51
   CaOH+           3.195e-08   2.425e-08    -7.496    -7.615    -0.120     (0)  
Cl            1.010e-01
   Cl-             1.010e-01   7.404e-02    -0.996    -1.131    -0.135     18.43
H(0)          2.836e-40
   H2              1.418e-40   1.468e-40   -39.848   -39.833     0.015     20.00
O(0)          3.716e-13
   O2              1.858e-13   1.924e-13   -12.731   -12.716     0.015     35.00

------------------------------Saturation indices-------------------------------

	Phase               SI   log IAP   log K(298 K,   0 atm)

	H2(g)           -36.73    -39.83   -3.10  H2
	H2O(g)           -1.50     -0.00    1.50  H2O
	O2(g)            -9.82    -12.72   -2.89  O2


Reaction step 15.

Using solution 1.	
Using temperature 1.	
Using pressure 1.	
Using reaction 1.	

Reaction 1.	

	  5.900e-02 moles of the following reaction have been added:

	                 Relative
	Reactant            moles

	CaCl2                1.00000

	                 Relative
	Element             moles
	Ca                   1.00000
	Cl                   2.00000

-----------------------------Solution composition------------------------------

	Elements           Molality       Moles

	Ca                5.900e-02   5.900e-02
	Cl                1.180e-01   1.180e-01

----------------------------Description of solution----------------------------

                                       pH  =   6.915      Charge balance
                                       pe  =  11.439      Adjusted to redox equilibrium
       Specific Conductance (uS/cm, 25 oC) = 7394
                          Density (g/cm3)  =   1.00238
                        Activity of water  =   0.997
                           Ionic strength  =   1.770e-01
                       Mass of water (kg)  =   1.000e+00
                 Total alkalinity (eq/kg)  =   3.692e-17
                    Total carbon (mol/kg)  =   0.000e+00
                       Total CO2 (mol/kg)  =   0.000e+00
                      Temperature (deg C)  =  25.00
                           Pressure (atm)  =  0.03
                  Electrical balance (eq)  =   1.611e-12
 Percent error, 100*(Cat-|An|)/(Cat+|An|)  =   0.00
                               Iterations  =  10
                                  Total H  = 1.110124e+02
                                  Total O  = 5.550622e+01

----------------------------Distribution of species----------------------------

                                            Log       Log         Log     mole V
   Species          Molality    Activity  Molality  Activity     Gamma   cm3/mol

   H+              1.516e-07   1.216e-07    -6.819    -6.915    -0.096      0.00
   OH-             1.161e-07   8.323e-08    -6.935    -7.080    -0.145     -3.20
   H2O             5.551e+01   9.970e-01     1.744    -0.001     0.000     18.07
Ca            5.900e-02
   Ca+2            5.900e-02   1.961e-02    -1.229    -1.708    -0.478    -17.46
   CaOH+           3.548e-08   2.667e-08    -7.450    -7.574    -0.124     (0)  
Cl            1.180e-01
   Cl-             1.180e-01   8.510e-02    -0.928    -1.070    -0.142     18.46
H(0)          2.669e-40
   H2              1.334e-40   1.390e-40   -39.875   -39.857     0.018     20.00
O(0)          4.118e-13
   O2              2.059e-13   2.145e-13   -12.686   -12.669     0.018     35.00

[...]

                                       pH  =   5.904      Charge balance
                                       pe  =   5.860      Adjusted to redox equilibrium
       Specific Conductance (uS/cm, 127 oC) = 47297
                          Density (g/cm3)  =   0.94668
                        Activity of water  =   0.995
                           Ionic strength  =   3.042e-01
                       Mass of water (kg)  =   1.000e+00
                 Total alkalinity (eq/kg)  =   3.807e-17
                    Total carbon (mol/kg)  =   0.000e+00
                       Total CO2 (mol/kg)  =   0.000e+00
                      Temperature (deg C)  = 127.00
                           Pressure (atm)  =  2.43
                  Electrical balance (eq)  =  -4.178e-15
 Percent error, 100*(Cat-|An|)/(Cat+|An|)  =  -0.00
                               Iterations  =   7
                                  Total H  = 1.110124e+02
                                  Total O  = 5.550622e+01

----------------------------Distribution of species----------------------------

                                            Log       Log         Log     mole V
   Species          Molality    Activity  Molality  Activity     Gamma   cm3/mol

   H+              1.686e-06   1.248e-06    -5.773    -5.904    -0.130      0.00
   OH-             1.682e-06   1.030e-06    -5.774    -5.987    -0.213    -10.87
   H2O             5.551e+01   9.948e-01     1.744    -0.002     0.000     19.22
Ca            1.014e-01
   Ca+2            1.014e-01   2.137e-02    -0.994    -1.670    -0.676    -10.23
   CaOH+           4.186e-09   2.827e-09    -8.378    -8.549    -0.170     (0)  
Cl            2.028e-01
   Cl-             2.028e-01   1.255e-01    -0.693    -0.901    -0.208     11.32
H(0)          1.838e-27
   H2              9.191e-28   9.858e-28   -27.037   -27.006     0.030     20.00
O(0)          2.660e-14
   O2              1.330e-14   1.426e-14   -13.876   -13.846     0.030     35.00

------------------------------Saturation indices-------------------------------

	Phase               SI   log IAP   log K(400 K,   2 atm)

	H2(g)           -23.96    -27.01   -3.04  H2
	H2O(g)            0.38     -0.00   -0.38  H2O
	O2(g)           -10.76    -13.85   -3.09  O2


Reaction step 4.

Using solution 1.	
Using temperature 1.	
Using pressure 1.	
Using reaction 1.	

Reaction 1.	

	  2.722e-01 moles of the following reaction have been added:

	                 Relative
	Reactant            moles

	CaCl2                1.00000

	                 Relative
	Element             moles
	Ca                   1.00000
	Cl                   2.00000

-----------------------------Solution composition------------------------------

	Elements           Molality       Moles

	Ca                2.722e-01   2.722e-01
	Cl                5.444e-01   5.444e-01

----------------------------Description of solution----------------------------

                                       pH  =   5.884      Charge balance
                                       pe  =   5.884      Adjusted to redox equilibrium
       Specific Conductance (uS/cm, 127 oC) = 97479
                          Density (g/cm3)  =   0.96186
                        Activity of water  =   0.986
                           Ionic strength  =   8.166e-01
                       Mass of water (kg)  =   1.000e+00
                 Total alkalinity (eq/kg)  =   1.243e-16
                    Total carbon (mol/kg)  =   0.000e+00
                       Total CO2 (mol/kg)  =   0.000e+00
                      Temperature (deg C)  = 127.00
                           Pressure (atm)  =  2.43
                  Electrical balance (eq)  =   1.400e-13
 Percent error, 100*(Cat-|An|)/(Cat+|An|)  =   0.00
                               Iterations  =   7
                                  Total H  = 1.110124e+02
                                  Total O  = 5.550622e+01

----------------------------Distribution of species----------------------------

                                            Log       Log         Log     mole V
   Species          Molality    Activity  Molality  Activity     Gamma   cm3/mol

   H+              1.856e-06   1.307e-06    -5.732    -5.884    -0.152      0.00
   OH-             1.847e-06   9.751e-07    -5.733    -6.011    -0.278     -9.39
   H2O             5.551e+01   9.861e-01     1.744    -0.006     0.000     19.22
Ca            2.722e-01
   Ca+2            2.722e-01   4.603e-02    -0.565    -1.337    -0.772    -11.28
   CaOH+           8.108e-09   5.764e-09    -8.091    -8.239    -0.148     (0)  
Cl            5.444e-01
   Cl-             5.444e-01   2.955e-01    -0.264    -0.529    -0.265     13.18
H(0)          1.603e-27
   H2              8.013e-28   9.671e-28   -27.096   -27.015     0.082     20.00
O(0)          2.413e-14
   O2              1.207e-14   1.456e-14   -13.918   -13.837     0.082     35.00

------------------------------Saturation indices-------------------------------

	Phase               SI   log IAP   log K(400 K,   2 atm)

	H2(g)           -23.97    -27.01   -3.04  H2
	H2O(g)            0.37     -0.01   -0.38  H2O
	O2(g)           -10.75    -13.84   -3.09  O2


Reaction step 5.

Using solution 1.	
Using temperature 1.	
Using pressure 1.	
Using reaction 1.	

Reaction 1.	

	  5.246e-01 moles of the following reaction have been added:

	                 Relative
	Reactant            moles

	CaCl2                1.00000

	                 Relative
	Element             moles
	Ca                   1.00000
	Cl                   2.00000

-----------------------------Solution composition------------------------------

	Elements           Molality       Moles

	Ca                5.246e-01   5.246e-01
	Cl                1.049e+00   1.049e+00

----------------------------Description of solution----------------------------

                                       pH  =   5.871      Charge balance
                                       pe  =   5.904      Adjusted to redox equilibrium
       Specific Conductance (uS/cm, 127 oC) = 138530
                          Density (g/cm3)  =   0.98339
                        Activity of water  =   0.973
                           Ionic strength  =   1.574e+00
                       Mass of water (kg)  =   1.000e+00
                 Total alkalinity (eq/kg)  =  -7.565e-17
                    Total carbon (mol/kg)  =   0.000e+00
                       Total CO2 (mol/kg)  =   0.000e+00
                      Temperature (deg C)  = 127.00
                           Pressure (atm)  =  2.43
                  Electrical balance (eq)  =   1.889e-13
 Percent error, 100*(Cat-|An|)/(Cat+|An|)  =   0.00
                               Iterations  =   7
                                  Total H  = 1.110124e+02
                                  Total O  = 5.550622e+01

----------------------------Distribution of species----------------------------

                                            Log       Log         Log     mole V
   Species          Molality    Activity  Molality  Activity     Gamma   cm3/mol

   H+              1.965e-06   1.346e-06    -5.707    -5.871    -0.164      0.00
   OH-             1.952e-06   9.342e-07    -5.709    -6.030    -0.320     -7.67
   H2O             5.551e+01   9.732e-01     1.744    -0.012     0.000     19.22
Ca            5.246e-01
   Ca+2            5.246e-01   9.169e-02    -0.280    -1.038    -0.757    -13.50
   CaOH+           1.247e-08   1.100e-08    -7.904    -7.959    -0.054     (0)  
Cl            1.049e+00
   Cl-             1.049e+00   5.300e-01     0.021    -0.276    -0.297     15.46
H(0)          1.304e-27
   H2              6.519e-28   9.366e-28   -27.186   -27.028     0.157     20.00
O(0)          2.105e-14
   O2              1.053e-14   1.512e-14   -13.978   -13.820     0.157     35.00

------------------------------Saturation indices-------------------------------

	Phase               SI   log IAP   log K(400 K,   2 atm)

	H2(g)           -23.99    -27.03   -3.04  H2
	H2O(g)            0.37     -0.01   -0.38  H2O
	O2(g)           -10.73    -13.82   -3.09  O2


Reaction step 6.

Using solution 1.	
Using temperature 1.	
Using pressure 1.	
Using reaction 1.	

Reaction 1.	

	  1.024e+00 moles of the following reaction have been added:

	                 Relative
	Reactant            moles

	CaCl2                1.00000

	                 Relative
	Element             moles
	Ca                   1.00000
	Cl                   2.00000

-----------------------------Solution composition------------------------------

	Elements           Molality       Moles

	Ca                1.024e+00   1.024e+00
	Cl                2.048e+00   2.048e+00

----------------------------Description of solution----------------------------

                                       pH  =   5.861      Charge balance
                                       pe  =   6.016      Adjusted to redox equilibrium
       Specific Conductance (uS/cm, 127 oC) = 178883
                          Density (g/cm3)  =   1.02371
                        Activity of water  =   0.948
                           Ionic strength  =   3.072e+00
                       Mass of water (kg)  =   1.000e+00
                 Total alkalinity (eq/kg)  =   1.612e-11
                    Total carbon (mol/kg)  =   0.000e+00
                       Total CO2 (mol/kg)  =   0.000e+00
                      Temperature (deg C)  = 127.00
                           Pressure (atm)  =  2.43
                  Electrical balance (eq)  =   1.070e-08
 Percent error, 100*(Cat-|An|)/(Cat+|An|)  =   0.00
                               Iterations  =   6
                                  Total H  = 1.110124e+02
                                  Total O  = 5.550622e+01

----------------------------Distribution of species----------------------------

                                            Log       Log         Log     mole V
   Species          Molality    Activity  Molality  Activity     Gamma   cm3/mol

   H+              2.058e-06   1.378e-06    -5.687    -5.861    -0.174      0.00
   OH-             2.039e-06   8.887e-07    -5.691    -6.051    -0.361     -4.80
   H2O             5.551e+01   9.478e-01     1.744    -0.023     0.000     19.22
Ca            1.024e+00
   Ca+2            1.024e+00   2.513e-01     0.010    -0.600    -0.610    -18.48
   CaOH+           1.879e-08   2.869e-08    -7.726    -7.542     0.184     (0)  
Cl            2.048e+00
   Cl-             2.048e+00   9.924e-01     0.311    -0.003    -0.315     19.44
H(0)          5.765e-28
   H2              2.882e-28   5.847e-28   -27.540   -27.233     0.307     20.00
O(0)          3.627e-14
   O2              1.814e-14   3.679e-14   -13.741   -13.434     0.307     35.00

------------------------------Saturation indices-------------------------------

	Phase               SI   log IAP   log K(400 K,   2 atm)

	H2(g)           -24.19    -27.23   -3.04  H2
	H2O(g)            0.36     -0.02   -0.38  H2O
	O2(g)           -10.34    -13.43   -3.09  O2


Reaction step 7.

Using solution 1.	
Using temperature 1.	
Using pressure 1.	
Using reaction 1.	

Reaction 1.	

	  3.197e+00 moles of the following reaction have been added:

	                 Relative
	Reactant            moles

	CaCl2                1.00000

	                 Relative
	Element             moles
	Ca                   1.00000
	Cl                   2.00000

-----------------------------Solution composition------------------------------

	Elements           Molality       Moles

	Ca                3.197e+00   3.197e+00
	Cl                6.394e+00   6.394e+00

----------------------------Description of solution----------------------------

                                       pH  =   5.864      Charge balance
                                       pe  =   6.025      Adjusted to redox equilibrium
       Specific Conductance (uS/cm, 127 oC) = 280130
                          Density (g/cm3)  =   1.17436
                        Activity of water  =   0.837
                           Ionic strength  =   9.591e+00
                       Mass of water (kg)  =   1.000e+00
                 Total alkalinity (eq/kg)  =   1.804e-16
                    Total carbon (mol/kg)  =   0.000e+00
                       Total CO2 (mol/kg)  =   0.000e+00
                      Temperature (deg C)  = 127.00
                           Pressure (atm)  =  2.43
                  Electrical balance (eq)  =   3.709e-09
 Percent error, 100*(Cat-|An|)/(Cat+|An|)  =   0.00
                               Iterations  =   9
                                  Total H  = 1.110124e+02
                                  Total O  = 5.550622e+01

----------------------------Distribution of species----------------------------

                                            Log       Log         Log     mole V
   Species          Molality    Activity  Molality  Activity     Gamma   cm3/mol

   H+              2.102e-06   1.368e-06    -5.677    -5.864    -0.187      0.00
   OH-             2.073e-06   7.904e-07    -5.683    -6.102    -0.419      5.42
   H2O             5.551e+01   8.370e-01     1.744    -0.077     0.000     19.22
Ca            3.197e+00
   Ca+2            3.197e+00   6.859e+00     0.505     0.836     0.332    -41.90
   CaOH+           2.980e-08   6.966e-07    -7.526    -6.157     1.369     (0)  
Cl            6.394e+00
   Cl-             6.394e+00   3.396e+00     0.806     0.531    -0.275     34.51
H(0)          1.217e-28
   H2              6.087e-29   5.540e-28   -28.216   -27.256     0.959     20.00
O(0)          7.024e-15
   O2              3.512e-15   3.196e-14   -14.454   -13.495     0.959     35.00

------------------------------Saturation indices-------------------------------

	Phase               SI   log IAP   log K(400 K,   2 atm)

	H2(g)           -24.21    -27.26   -3.04  H2
	H2O(g)            0.30     -0.08   -0.38  H2O
	O2(g)           -10.41    -13.50   -3.09  O2


Reaction step 8.

Using solution 1.	
Using temperature 1.	
Using pressure 1.	
Using reaction 1.	

Reaction 1.	

	  5.010e+00 moles of the following reaction have been added:

	                 Relative
	Reactant            moles

	CaCl2                1.00000

	                 Relative
	Element             moles
	Ca                   1.00000
	Cl                   2.00000

-----------------------------Solution composition------------------------------

	Elements           Molality       Moles

	Ca                5.010e+00   5.010e+00
	Cl                1.002e+01   1.002e+01

----------------------------Description of solution----------------------------

                                       pH  =   5.882      Charge balance
                                       pe  =   6.177      Adjusted to redox equilibrium
       Specific Conductance (uS/cm, 127 oC) = 470938
                          Density (g/cm3)  =   1.27652
                        Activity of water  =   0.744
                           Ionic strength  =   1.503e+01
                       Mass of water (kg)  =   1.000e+00
                 Total alkalinity (eq/kg)  =  -8.611e-16
                    Total carbon (mol/kg)  =   0.000e+00
                       Total CO2 (mol/kg)  =   0.000e+00
                      Temperature (deg C)  = 127.00
                           Pressure (atm)  =  2.43
                  Electrical balance (eq)  =   1.643e-08
 Percent error, 100*(Cat-|An|)/(Cat+|An|)  =   0.00
                               Iterations  =   8
                                  Total H  = 1.110124e+02
                                  Total O  = 5.550622e+01

----------------------------Distribution of species----------------------------

                                            Log       Log         Log     mole V
   Species          Molality    Activity  Molality  Activity     Gamma   cm3/mol

   H+              2.034e-06   1.312e-06    -5.692    -5.882    -0.190      0.00
   OH-             2.004e-06   7.326e-07    -5.698    -6.135    -0.437     13.01
   H2O             5.551e+01   7.445e-01     1.744    -0.128     0.000     19.22
Ca            5.010e+00
   Ca+2            5.010e+00   7.729e+01     0.700     1.888     1.188    -61.97
   CaOH+           2.922e-08   7.278e-06    -7.534    -5.138     2.396     (0)  
Cl            1.002e+01
   Cl-             1.002e+01   6.155e+00     1.001     0.789    -0.212     46.16
H(0)          1.590e-29
   H2              7.948e-30   2.531e-28   -29.100   -27.597     1.503     20.00
O(0)          7.612e-15
   O2              3.806e-15   1.212e-13   -14.420   -12.917     1.503     35.00

------------------------------Saturation indices-------------------------------

	Phase               SI   log IAP   log K(400 K,   2 atm)

	H2(g)           -24.55    -27.60   -3.04  H2
	H2O(g)            0.25     -0.13   -0.38  H2O
	O2(g)            -9.83    -12.92   -3.09  O2


Reaction step 9.

Using solution 1.	
Using temperature 1.	
Using pressure 1.	
Using reaction 1.	

Reaction 1.	

	  6.424e+00 moles of the following reaction have been added:

	                 Relative
	Reactant            moles

	CaCl2                1.00000

	                 Relative
	Element             moles
	Ca                   1.00000
	Cl                   2.00000

-----------------------------Solution composition------------------------------

	Elements           Molality       Moles

	Ca                6.424e+00   6.424e+00
	Cl                1.285e+01   1.285e+01

----------------------------Description of solution----------------------------

                                       pH  =   5.901      Charge balance
                                       pe  =   6.279      Adjusted to redox equilibrium
       Specific Conductance (uS/cm, 127 oC) = 816014
                          Density (g/cm3)  =   1.34458
                        Activity of water  =   0.672
                           Ionic strength  =   1.927e+01
                       Mass of water (kg)  =   1.000e+00
                 Total alkalinity (eq/kg)  =   2.542e-10
                    Total carbon (mol/kg)  =   0.000e+00
                       Total CO2 (mol/kg)  =   0.000e+00
                      Temperature (deg C)  = 127.00
                           Pressure (atm)  =  2.36
                  Electrical balance (eq)  =  -3.683e-10
 Percent error, 100*(Cat-|An|)/(Cat+|An|)  =  -0.00
                               Iterations  =   7
                                  Total H  = 1.110124e+02
                                  Total O  = 5.550622e+01

----------------------------Distribution of species----------------------------

                                            Log       Log         Log     mole V
   Species          Molality    Activity  Molality  Activity     Gamma   cm3/mol

   H+              1.956e-06   1.257e-06    -5.709    -5.901    -0.192      0.00
   OH-             1.930e-06   6.906e-07    -5.715    -6.161    -0.446     18.67
   H2O             5.551e+01   6.724e-01     1.744    -0.172     0.000     19.22
Ca            6.424e+00
   Ca+2            6.424e+00   4.747e+02     0.808     2.676     1.869    -77.74
   CaOH+           2.629e-08   4.215e-05    -7.580    -4.375     3.205     (0)  
Cl            1.285e+01
   Cl-             1.285e+01   8.948e+00     1.109     0.952    -0.157     54.98
H(0)          3.426e-30
   H2              1.713e-30   1.449e-28   -29.766   -27.839     1.927     20.00
O(0)          7.130e-15
   O2              3.565e-15   3.016e-13   -14.448   -12.521     1.927     35.00

------------------------------Saturation indices-------------------------------

	Phase               SI   log IAP   log K(400 K,   2 atm)

	H2(g)           -24.80    -27.84   -3.04  H2
	H2O(g)            0.21     -0.17   -0.38  H2O
	O2(g)            -9.43    -12.52   -3.09  O2


------------------
End of simulation.
------------------

-------------------------------------
Reading input data for simulation 11.
-------------------------------------

-----------
End of run.
-----------

