   Input file: Vm_CaCl2_sol
  Output file: Vm_CaCl2_sol.out
Database file: ../database/phreeqc.dat

------------------
Reading data base.
------------------

	SOLUTION_MASTER_SPECIES
	SOLUTION_SPECIES
	PHASES
	EXCHANGE_MASTER_SPECIES
	EXCHANGE_SPECIES
	SURFACE_MASTER_SPECIES
	SURFACE_SPECIES
	RATES
	END
------------------------------------
Reading input data for simulation 1.
------------------------------------

	DATABASE ../database/phreeqc.dat
	SOLUTION 1
	 pH 7 charge
	END
-------------------------------------------
Beginning of initial solution calculations.
-------------------------------------------

Initial solution 1.	

-----------------------------Solution composition------------------------------

	Elements           Molality       Moles

	Pure water     

----------------------------Description of solution----------------------------

                                       pH  =   7.000      Charge balance
                                       pe  =   4.000    
       Specific Conductance (uS/cm, 25 oC) = 0
                          Density (g/cm3)  =   0.99705
                        Activity of water  =   1.000
                           Ionic strength  =   1.001e-07
                       Mass of water (kg)  =   1.000e+00
                 Total alkalinity (eq/kg)  =   6.310e-18
                    Total carbon (mol/kg)  =   0.000e+00
                       Total CO2 (mol/kg)  =   0.000e+00
                      Temperature (deg C)  =  25.00
                  Electrical balance (eq)  =  -6.310e-18
 Percent error, 100*(Cat-|An|)/(Cat+|An|)  =  -0.00
                               Iterations  =   2
                                  Total H  = 1.110124e+02
                                  Total O  = 5.550622e+01

----------------------------Distribution of species----------------------------

                                               Log       Log       Log    mole V
   Species          Molality    Activity  Molality  Activity     Gamma   cm3/mol

   OH-             1.001e-07   1.001e-07    -6.999    -7.000    -0.000     -4.11
   H+              1.001e-07   1.001e-07    -6.999    -7.000    -0.000      0.00
   H2O             5.551e+01   1.000e+00     1.744    -0.000     0.000     18.07
H(0)          1.419e-25
   H2              7.095e-26   7.095e-26   -25.149   -25.149     0.000     28.61
O(0)          0.000e+00
   O2              0.000e+00   0.000e+00   -42.082   -42.082     0.000     30.40

------------------------------Saturation indices-------------------------------

	Phase               SI   log IAP   log K(298 K,   1 atm)

	H2(g)           -22.05    -25.15   -3.10  H2
	H2O(g)           -1.50     -0.00    1.50  H2O
	O2(g)           -39.19    -42.08   -2.89  O2


------------------
End of simulation.
------------------

------------------------------------
Reading input data for simulation 2.
------------------------------------

	USE solution 1
	REACTION_TEMPERATURE
	 15.000000
	REACTION_PRESSURE
	 0.000000
	REACTION
	 CaCl2 1
	0 0.050000 0.100000 0.500000 1.000000 2.000000 3.000000 4.000000 6.000000
	USER_GRAPH
	 -headings 15.oC
	-axis_titles "CaCl2 / (mol/kg H2O)" "CaCl2 molar volume / (cm3/mol)"
	10 data 0, 18.829589, 18.946477, 20.954920, 22.731945, 25.408129, 27.642932, 29.475311, 32.659160,
	20 dim d(9)
	30 read d(1), d(2), d(3), d(4), d(5), d(6), d(7), d(8), d(9),
	40 if step_no = 1 then put(rho, 10)
	50 if step_no > 1 then Vmol = (1e3 + tot("Ca") * 110.986) / (tot("Ca") * rho) - 1e3 / (tot("Ca") * get(10))
	60 if step_no = 1 then dif = 0 else dif = Vmol - d(step_no)
	62 if step_no = 1 then goto 90
	70 plot_xy tot("Ca"), d(step_no), line_w = 0, color = Yellow #aph_x tot("Ca") # dif, str$(tc), str$(pressure), str$(step_no + get(1))
	80 plot_xy tot("Ca"), Vmol, symbol = None, color = Yellow #step_no = 264 then put(step_no + get(1), 1)
	90 end
	END
-----------------------------------------
Beginning of batch-reaction calculations.
-----------------------------------------

Reaction step 1.

Using solution 1.	
Using temperature 1.	
Using pressure 1.	
Using reaction 1.	

Reaction 1.	

	  0.000e+00 moles of the following reaction have been added:

	                 Relative
	Reactant            moles

	CaCl2                1.00000

	                 Relative
	Element             moles
	Ca                   1.00000
	Cl                   2.00000

-----------------------------Solution composition------------------------------

	Elements           Molality       Moles

	Pure water     

----------------------------Description of solution----------------------------

                                       pH  =   7.176      Charge balance
                                       pe  =   0.022      Adjusted to redox equilibrium
       Specific Conductance (uS/cm, 15 oC) = 0
                          Density (g/cm3)  =   0.99905
                        Activity of water  =   1.000
                           Ionic strength  =   6.668e-08
                       Mass of water (kg)  =   1.000e+00
                 Total alkalinity (eq/kg)  =   6.310e-18
                    Total carbon (mol/kg)  =   0.000e+00
                       Total CO2 (mol/kg)  =   0.000e+00
                      Temperature (deg C)  =  15.00
                           Pressure (atm)  =  0.02
                  Electrical balance (eq)  =  -6.310e-18
 Percent error, 100*(Cat-|An|)/(Cat+|An|)  =  -0.00
                               Iterations  =  31
                                  Total H  = 1.110124e+02
                                  Total O  = 5.550622e+01

----------------------------Distribution of species----------------------------

                                               Log       Log       Log    mole V
   Species          Molality    Activity  Molality  Activity     Gamma   cm3/mol

   OH-             6.668e-08   6.666e-08    -7.176    -7.176    -0.000     -4.75
   H+              6.668e-08   6.666e-08    -7.176    -7.176    -0.000      0.00
   H2O             5.551e+01   1.000e+00     1.744    -0.000     0.000     18.03
H(0)          6.310e-18
   H2              3.155e-18   3.155e-18   -17.501   -17.501     0.000     28.62
O(0)          0.000e+00
   O2              0.000e+00   0.000e+00   -60.717   -60.717     0.000     29.51

------------------------------Saturation indices-------------------------------

	Phase               SI   log IAP   log K(288 K,   0 atm)

	H2(g)           -14.43    -17.50   -3.07  H2
	H2O(g)           -1.77     -0.00    1.77  H2O
	O2(g)           -57.90    -60.72   -2.81  O2


Reaction step 2.

Using solution 1.	
Using temperature 1.	
Using pressure 1.	
Using reaction 1.	

Reaction 1.	

	  5.000e-02 moles of the following reaction have been added:

	                 Relative
	Reactant            moles

	CaCl2                1.00000

	                 Relative
	Element             moles
	Ca                   1.00000
	Cl                   2.00000

-----------------------------Solution composition------------------------------

	Elements           Molality       Moles

	Ca                5.000e-02   5.000e-02
	Cl                1.000e-01   1.000e-01

----------------------------Description of solution----------------------------

                                       pH  =   7.048      Charge balance
                                       pe  =  11.256      Adjusted to redox equilibrium
       Specific Conductance (uS/cm, 15 oC) = 7971
                          Density (g/cm3)  =   1.00370
                        Activity of water  =   0.997
                           Ionic strength  =   1.500e-01
                       Mass of water (kg)  =   1.000e+00
                 Total alkalinity (eq/kg)  =   4.921e-18
                    Total carbon (mol/kg)  =   0.000e+00
                       Total CO2 (mol/kg)  =   0.000e+00
                      Temperature (deg C)  =  15.00
                           Pressure (atm)  =  0.02
                  Electrical balance (eq)  =   4.367e-14
 Percent error, 100*(Cat-|An|)/(Cat+|An|)  =   0.00
                               Iterations  =  18
                                  Total H  = 1.110124e+02
                                  Total O  = 5.550622e+01

----------------------------Distribution of species----------------------------

                                               Log       Log       Log    mole V
   Species          Molality    Activity  Molality  Activity     Gamma   cm3/mol

   H+              1.104e-07   8.953e-08    -6.957    -7.048    -0.091      0.00
   OH-             6.749e-08   4.950e-08    -7.171    -7.305    -0.135     -4.17
   H2O             5.551e+01   9.974e-01     1.744    -0.001     0.000     18.03
Ca            5.000e-02
   Ca+2            5.000e-02   1.769e-02    -1.301    -1.752    -0.451    -18.10
   CaOH+           4.287e-08   3.271e-08    -7.368    -7.485    -0.117     (0)  
Cl            1.000e-01
   Cl-             1.000e-01   7.372e-02    -1.000    -1.132    -0.132     17.96
H(0)          3.746e-40
   H2              1.873e-40   1.939e-40   -39.727   -39.712     0.015     28.62
O(0)          9.762e-17
   O2              4.881e-17   5.053e-17   -16.311   -16.296     0.015     29.51

------------------------------Saturation indices-------------------------------

	Phase               SI   log IAP   log K(288 K,   0 atm)

	H2(g)           -36.64    -39.71   -3.07  H2
	H2O(g)           -1.77     -0.00    1.77  H2O
	O2(g)           -13.48    -16.30   -2.81  O2


Reaction step 3.

Using solution 1.	
Using temperature 1.	
Using pressure 1.	
Using reaction 1.	

Reaction 1.	

	  1.000e-01 moles of the following reaction have been added:

	                 Relative
	Reactant            moles

	CaCl2                1.00000

	                 Relative
	Element             moles
	Ca                   1.00000
	Cl                   2.00000

-----------------------------Solution composition------------------------------

	Elements           Molality       Moles

	Ca                1.000e-01   1.000e-01
	Cl                2.000e-01   2.000e-01

----------------------------Description of solution----------------------------

                                       pH  =   6.994      Charge balance
                                       pe  =  11.309      Adjusted to redox equilibrium
       Specific Conductance (uS/cm, 15 oC) = 15064
                          Density (g/cm3)  =   1.00829
                        Activity of water  =   0.995
                           Ionic strength  =   3.000e-01
                       Mass of water (kg)  =   1.000e+00
                 Total alkalinity (eq/kg)  =   2.834e-17
                    Total carbon (mol/kg)  =   0.000e+00
                       Total CO2 (mol/kg)  =   0.000e+00
                      Temperature (deg C)  =  15.00
                           Pressure (atm)  =  0.02
                  Electrical balance (eq)  =   1.995e-11
 Percent error, 100*(Cat-|An|)/(Cat+|An|)  =   0.00
                               Iterations  =  18
                                  Total H  = 1.110124e+02
                                  Total O  = 5.550622e+01

----------------------------Distribution of species----------------------------

                                               Log       Log       Log    mole V
   Species          Molality    Activity  Molality  Activity     Gamma   cm3/mol

   H+              1.293e-07   1.015e-07    -6.888    -6.994    -0.105      0.00
   OH-             6.426e-08   4.356e-08    -7.192    -7.361    -0.169     -3.79
   H2O             5.551e+01   9.949e-01     1.744    -0.002     0.000     18.03
Ca            1.000e-01
   Ca+2            1.000e-01   2.948e-02    -1.000    -1.530    -0.530    -17.84
   CaOH+           6.505e-08   4.796e-08    -7.187    -7.319    -0.132     (0)  
Cl            2.000e-01
   Cl-             2.000e-01   1.370e-01    -0.699    -0.863    -0.164     18.10
H(0)          3.628e-40
   H2              1.814e-40   1.944e-40   -39.741   -39.711     0.030     28.62
O(0)          9.332e-17
   O2              4.666e-17   5.000e-17   -16.331   -16.301     0.030     29.51

------------------------------Saturation indices-------------------------------

	Phase               SI   log IAP   log K(288 K,   0 atm)

	H2(g)           -36.64    -39.71   -3.07  H2
	H2O(g)           -1.77     -0.00    1.77  H2O
	O2(g)           -13.49    -16.30   -2.81  O2


Reaction step 4.

Using solution 1.	
Using temperature 1.	
Using pressure 1.	
Using reaction 1.	

Reaction 1.	

	  5.000e-01 moles of the following reaction have been added:

	                 Relative
	Reactant            moles

	CaCl2                1.00000

	                 Relative
	Element             moles
	Ca                   1.00000
	Cl                   2.00000

-----------------------------Solution composition------------------------------

	Elements           Molality       Moles

	Ca                5.000e-01   5.000e-01
	Cl                1.000e+00   1.000e+00

----------------------------Description of solution----------------------------

                                       pH  =   6.813      Charge balance
                                       pe  =  11.472      Adjusted to redox equilibrium
       Specific Conductance (uS/cm, 15 oC) = 51737
                          Density (g/cm3)  =   1.04381
                        Activity of water  =   0.974
                           Ionic strength  =   1.500e+00
                       Mass of water (kg)  =   1.000e+00
                 Total alkalinity (eq/kg)  =   1.465e-16
                    Total carbon (mol/kg)  =   0.000e+00
                       Total CO2 (mol/kg)  =   0.000e+00
                      Temperature (deg C)  =  15.00
                           Pressure (atm)  =  0.02
                  Electrical balance (eq)  =   2.426e-11
 Percent error, 100*(Cat-|An|)/(Cat+|An|)  =   0.00
                               Iterations  =  41
                                  Total H  = 1.110124e+02
                                  Total O  = 5.550622e+01

----------------------------Distribution of species----------------------------

                                               Log       Log       Log    mole V
   Species          Molality    Activity  Molality  Activity     Gamma   cm3/mol

   H+              2.092e-07   1.538e-07    -6.679    -6.813    -0.133      0.00
   OH-             5.074e-08   2.815e-08    -7.295    -7.551    -0.256     -1.24
   H2O             5.551e+01   9.745e-01     1.744    -0.011     0.000     18.03
Ca            5.000e-01
   Ca+2            5.000e-01   1.342e-01    -0.301    -0.872    -0.571    -16.85
   CaOH+           1.584e-07   1.411e-07    -6.800    -6.851    -0.050     (0)  
Cl            1.000e+00
   Cl-             1.000e+00   5.843e-01     0.000    -0.233    -0.233     18.67
H(0)          2.989e-40
   H2              1.494e-40   2.111e-40   -39.826   -39.676     0.150     28.62
O(0)          5.760e-17
   O2              2.880e-17   4.068e-17   -16.541   -16.391     0.150     29.51

------------------------------Saturation indices-------------------------------

	Phase               SI   log IAP   log K(288 K,   0 atm)

	H2(g)           -36.60    -39.68   -3.07  H2
	H2O(g)           -1.78     -0.01    1.77  H2O
	O2(g)           -13.58    -16.39   -2.81  O2


Reaction step 5.

Using solution 1.	
Using temperature 1.	
Using pressure 1.	
Using reaction 1.	

Reaction 1.	

	  1.000e+00 moles of the following reaction have been added:

	                 Relative
	Reactant            moles

	CaCl2                1.00000

	                 Relative
	Element             moles
	Ca                   1.00000
	Cl                   2.00000

-----------------------------Solution composition------------------------------

	Elements           Molality       Moles

	Ca                1.000e+00   1.000e+00
	Cl                2.000e+00   2.000e+00

----------------------------Description of solution----------------------------

                                       pH  =   6.709      Charge balance
                                       pe  =  11.539      Adjusted to redox equilibrium
       Specific Conductance (uS/cm, 15 oC) = 85653
                          Density (g/cm3)  =   1.08590
                        Activity of water  =   0.949
                           Ionic strength  =   3.000e+00
                       Mass of water (kg)  =   1.000e+00
                 Total alkalinity (eq/kg)  =   2.560e-16
                    Total carbon (mol/kg)  =   0.000e+00
                       Total CO2 (mol/kg)  =   0.000e+00
                      Temperature (deg C)  =  15.00
                           Pressure (atm)  =  0.02
                  Electrical balance (eq)  =   8.158e-12
 Percent error, 100*(Cat-|An|)/(Cat+|An|)  =   0.00
                               Iterations  =  41
                                  Total H  = 1.110124e+02
                                  Total O  = 5.550622e+01

----------------------------Distribution of species----------------------------

                                               Log       Log       Log    mole V
   Species          Molality    Activity  Molality  Activity     Gamma   cm3/mol

   H+              2.715e-07   1.955e-07    -6.566    -6.709    -0.143      0.00
   OH-             4.219e-08   2.157e-08    -7.375    -7.666    -0.291      1.66
   H2O             5.551e+01   9.490e-01     1.744    -0.023     0.000     18.03
Ca            1.000e+00
   Ca+2            1.000e+00   3.870e-01    -0.000    -0.412    -0.412    -16.02
   CaOH+           2.293e-07   3.118e-07    -6.640    -6.506     0.133     (0)  
Cl            2.000e+00
   Cl-             2.000e+00   1.134e+00     0.301     0.055    -0.246     19.09
H(0)          2.516e-40
   H2              1.258e-40   2.510e-40   -39.900   -39.600     0.300     28.62
O(0)          2.735e-17
   O2              1.367e-17   2.728e-17   -16.864   -16.564     0.300     29.51

------------------------------Saturation indices-------------------------------

	Phase               SI   log IAP   log K(288 K,   0 atm)

	H2(g)           -36.53    -39.60   -3.07  H2
	H2O(g)           -1.79     -0.02    1.77  H2O
	O2(g)           -13.75    -16.56   -2.81  O2


Reaction step 6.

Using solution 1.	
Using temperature 1.	
Using pressure 1.	
Using reaction 1.	

Reaction 1.	

	  2.000e+00 moles of the following reaction have been added:

	                 Relative
	Reactant            moles

	CaCl2                1.00000

	                 Relative
	Element             moles
	Ca                   1.00000
	Cl                   2.00000

-----------------------------Solution composition------------------------------

	Elements           Molality       Moles

	Ca                2.000e+00   2.000e+00
	Cl                4.000e+00   4.000e+00

----------------------------Description of solution----------------------------

                                       pH  =   6.587      Charge balance
                                       pe  =  12.128      Adjusted to redox equilibrium
       Specific Conductance (uS/cm, 15 oC) = 250586
                          Density (g/cm3)  =   1.16328
                        Activity of water  =   0.898
                           Ionic strength  =   6.000e+00
                       Mass of water (kg)  =   1.000e+00
                 Total alkalinity (eq/kg)  =   2.315e-16
                    Total carbon (mol/kg)  =   0.000e+00
                       Total CO2 (mol/kg)  =   0.000e+00
                      Temperature (deg C)  =  15.00
                           Pressure (atm)  =  0.02
                  Electrical balance (eq)  =  -4.316e-14
 Percent error, 100*(Cat-|An|)/(Cat+|An|)  =  -0.00
                               Iterations  =  13
                                  Total H  = 1.110124e+02
                                  Total O  = 5.550622e+01

----------------------------Distribution of species----------------------------

                                               Log       Log       Log    mole V
   Species          Molality    Activity  Molality  Activity     Gamma   cm3/mol

   H+              3.653e-07   2.587e-07    -6.437    -6.587    -0.150      0.00
   OH-             3.246e-08   1.542e-08    -7.489    -7.812    -0.323      7.21
   H2O             5.551e+01   8.980e-01     1.744    -0.047     0.000     18.03
Ca            2.000e+00
   Ca+2            2.000e+00   2.035e+00     0.301     0.309     0.008    -14.63
   CaOH+           3.328e-07   1.172e-06    -6.478    -5.931     0.547     (0)  
Cl            4.000e+00
   Cl-             4.000e+00   2.338e+00     0.602     0.369    -0.233     19.69
H(0)          0.000e+00
   H2              0.000e+00   0.000e+00   -41.136   -40.536     0.600     28.62
O(0)          9.122e-16
   O2              4.561e-16   1.816e-15   -15.341   -14.741     0.600     29.51

------------------------------Saturation indices-------------------------------

	Phase               SI   log IAP   log K(288 K,   0 atm)

	H2(g)           -37.46    -40.54   -3.07  H2
	H2O(g)           -1.82     -0.05    1.77  H2O
	O2(g)           -11.93    -14.74   -2.81  O2


Reaction step 7.

Using solution 1.	
Using temperature 1.	
Using pressure 1.	
Using reaction 1.	

Reaction 1.	

	  3.000e+00 moles of the following reaction have been added:

	                 Relative
	Reactant            moles

	CaCl2                1.00000

	                 Relative
	Element             moles
	Ca                   1.00000
	Cl                   2.00000

-----------------------------Solution composition------------------------------

	Elements           Molality       Moles

	Ca                3.000e+00   3.000e+00
	Cl                6.000e+00   6.000e+00

----------------------------Description of solution----------------------------

                                       pH  =   6.507      Charge balance
                                       pe  =  12.014      Adjusted to redox equilibrium
       Specific Conductance (uS/cm, 15 oC) = 366914
                          Density (g/cm3)  =   1.23217
                        Activity of water  =   0.847
                           Ionic strength  =   9.000e+00
                       Mass of water (kg)  =   1.000e+00
                 Total alkalinity (eq/kg)  =  -1.261e-16
                    Total carbon (mol/kg)  =   0.000e+00
                       Total CO2 (mol/kg)  =   0.000e+00
                      Temperature (deg C)  =  15.00
                           Pressure (atm)  =  0.02
                  Electrical balance (eq)  =  -5.979e-12
 Percent error, 100*(Cat-|An|)/(Cat+|An|)  =  -0.00
                               Iterations  =  12
                                  Total H  = 1.110124e+02
                                  Total O  = 5.550622e+01

----------------------------Distribution of species----------------------------

                                               Log       Log       Log    mole V
   Species          Molality    Activity  Molality  Activity     Gamma   cm3/mol

   H+              4.425e-07   3.110e-07    -6.354    -6.507    -0.153      0.00
   OH-             2.645e-08   1.210e-08    -7.578    -7.917    -0.340     12.62
   H2O             5.551e+01   8.470e-01     1.744    -0.072     0.000     18.03
Ca            3.000e+00
   Ca+2            3.000e+00   8.756e+00     0.477     0.942     0.465    -13.36
   CaOH+           4.160e-07   3.958e-06    -6.381    -5.403     0.978     (0)  
Cl            6.000e+00
   Cl-             6.000e+00   3.746e+00     0.778     0.574    -0.205     20.15
H(0)          0.000e+00
   H2              0.000e+00   0.000e+00   -41.049   -40.149     0.900     28.62
O(0)          6.838e-17
   O2              3.419e-17   2.716e-16   -16.466   -15.566     0.900     29.51

------------------------------Saturation indices-------------------------------

	Phase               SI   log IAP   log K(288 K,   0 atm)

	H2(g)           -37.08    -40.15   -3.07  H2
	H2O(g)           -1.84     -0.07    1.77  H2O
	O2(g)           -12.75    -15.57   -2.81  O2


Reaction step 8.

Using solution 1.	
Using temperature 1.	
Using pressure 1.	
Using reaction 1.	

Reaction 1.	

	  4.000e+00 moles of the following reaction have been added:

	                 Relative
	Reactant            moles

	CaCl2                1.00000

	                 Relative
	Element             moles
	Ca                   1.00000
	Cl                   2.00000

-----------------------------Solution composition------------------------------

	Elements           Molality       Moles

	Ca                4.000e+00   4.000e+00
	Cl                8.000e+00   8.000e+00

----------------------------Description of solution----------------------------

                                       pH  =   6.447      Charge balance
                                       pe  =  12.556      Adjusted to redox equilibrium
       Specific Conductance (uS/cm, 15 oC) = 495901
                          Density (g/cm3)  =   1.29296
                        Activity of water  =   0.796
                           Ionic strength  =   1.200e+01
                       Mass of water (kg)  =   1.000e+00
                 Total alkalinity (eq/kg)  =   5.862e-11
                    Total carbon (mol/kg)  =   0.000e+00
                       Total CO2 (mol/kg)  =   0.000e+00
                      Temperature (deg C)  =  15.00
                           Pressure (atm)  =  0.02
                  Electrical balance (eq)  =   4.547e-08
 Percent error, 100*(Cat-|An|)/(Cat+|An|)  =   0.00
                               Iterations  =  60
                                  Total H  = 1.110124e+02
                                  Total O  = 5.550622e+01

----------------------------Distribution of species----------------------------

                                               Log       Log       Log    mole V
   Species          Molality    Activity  Molality  Activity     Gamma   cm3/mol

   H+              5.111e-07   3.575e-07    -6.291    -6.447    -0.155      0.00
   OH-             2.216e-08   9.893e-09    -7.655    -8.005    -0.350     17.96
   H2O             5.551e+01   7.960e-01     1.744    -0.099     0.000     18.03
Ca            4.000e+00
   Ca+2            4.000e+00   3.456e+01     0.602     1.539     0.937    -12.13
   CaOH+           4.890e-07   1.277e-05    -6.311    -4.894     1.417     (0)  
Cl            8.000e+00
   Cl-             8.000e+00   5.407e+00     0.903     0.733    -0.170     20.54
H(0)          0.000e+00
   H2              0.000e+00   0.000e+00   -42.310   -41.110     1.200     28.62
O(0)          2.538e-15
   O2              1.269e-15   2.011e-14   -14.897   -13.697     1.200     29.51

------------------------------Saturation indices-------------------------------

	Phase               SI   log IAP   log K(288 K,   0 atm)

	H2(g)           -38.04    -41.11   -3.07  H2
	H2O(g)           -1.87     -0.10    1.77  H2O
	O2(g)           -10.88    -13.70   -2.81  O2


Reaction step 9.

Using solution 1.	
Using temperature 1.	
Using pressure 1.	
Using reaction 1.	

Reaction 1.	

	  6.000e+00 moles of the following reaction have been added:

	                 Relative
	Reactant            moles

	CaCl2                1.00000

	                 Relative
	Element             moles
	Ca                   1.00000
	Cl                   2.00000

-----------------------------Solution composition------------------------------

	Elements           Molality       Moles

	Ca                6.000e+00   6.000e+00
	Cl                1.200e+01   1.200e+01

----------------------------Description of solution----------------------------

                                       pH  =   6.357      Charge balance
                                       pe  =  -0.465      Adjusted to redox equilibrium
       Specific Conductance (uS/cm, 15 oC) = 846559
                          Density (g/cm3)  =   1.39195
                        Activity of water  =   0.694
                           Ionic strength  =   1.800e+01
                       Mass of water (kg)  =   1.000e+00
                 Total alkalinity (eq/kg)  =  -5.191e-16
                    Total carbon (mol/kg)  =   0.000e+00
                       Total CO2 (mol/kg)  =   0.000e+00
                      Temperature (deg C)  =  15.00
                           Pressure (atm)  =  0.01
                  Electrical balance (eq)  =  -7.702e-11
 Percent error, 100*(Cat-|An|)/(Cat+|An|)  =  -0.00
                               Iterations  =  28
                                  Total H  = 1.110124e+02
                                  Total O  = 5.550622e+01

----------------------------Distribution of species----------------------------

                                               Log       Log       Log    mole V
   Species          Molality    Activity  Molality  Activity     Gamma   cm3/mol

   H+              6.326e-07   4.398e-07    -6.199    -6.357    -0.158      0.00
   OH-             1.619e-08   7.011e-09    -7.791    -8.154    -0.364     28.51
   H2O             5.551e+01   6.940e-01     1.744    -0.159     0.000     18.03
Ca            6.000e+00
   Ca+2            6.000e+00   4.733e+02     0.778     2.675     1.897     -9.74
   CaOH+           6.164e-07   1.239e-04    -6.210    -3.907     2.303     (0)  
Cl            1.200e+01
   Cl-             1.200e+01   9.674e+00     1.079     0.986    -0.094     21.19
H(0)          4.104e-17
   H2              2.052e-17   1.295e-15   -16.688   -14.888     1.800     28.62
O(0)          0.000e+00
   O2              0.000e+00   0.000e+00   -68.061   -66.261     1.800     29.51

------------------------------Saturation indices-------------------------------

	Phase               SI   log IAP   log K(288 K,   0 atm)

	H2(g)           -11.82    -14.89   -3.07  H2
	H2O(g)           -1.93     -0.16    1.77  H2O
	O2(g)           -63.45    -66.26   -2.81  O2


------------------
End of simulation.
------------------

------------------------------------
Reading input data for simulation 3.
------------------------------------

	USE solution 1
	REACTION_TEMPERATURE
	 25.000000
	REACTION_PRESSURE
	 0.000000
	REACTION
	 CaCl2 1
	0 0.012560 0.020300 0.022000 0.022350 0.023900 0.032870 0.033400 0.037000 0.045000 0.046900 0.050000 0.050010 0.050500 0.059000 0.059400 0.066350 0.066700 0.068500 0.072400 0.081600 0.083200 0.083700 0.095830 0.097500 0.099900 0.100000 0.101000 0.120800 0.130100 0.130650 0.131700 0.140600 0.143500 0.143900 0.166600 0.178500 0.185400 0.189100 0.194800 0.196230 0.202300 0.204600 0.251500 0.253500 0.262900 0.263250 0.263300 0.292600 0.328000 0.333400 0.337000 0.337200 0.348800 0.359900 0.393600 0.400700 0.406000 0.416400 0.482300 0.486900 0.499300 0.500000 0.501900 0.502600 0.529500 0.554200 0.573400 0.584300 0.594200 0.604300 0.613900 0.666500 0.669100 0.669600 0.715400 0.775400 0.789000 0.852800 0.867300 0.908200 0.955900 0.992900 0.998900 1.000000 1.005000 1.019200 1.091300 1.157800 1.160700 1.189100 1.274900 1.322600 1.440000 1.475400 1.500100 1.520600 1.522700 1.523400 1.540600 1.666300 1.682500 1.710000 1.755700 1.757500 1.767800 1.781800 1.878800 1.903400 1.940700 1.948400 1.979000 1.999500 2.000000 2.006000 2.020900 2.092900 2.106300 2.116700 2.211500 2.226100 2.293400 2.410600 2.411200 2.500000 2.500400 2.507300 2.588500 2.598900 2.638000 2.787000 2.839100 2.909100 2.958300 3.000000 3.017000 3.036800 3.143800 3.226800 3.228500 3.333200 3.354500 3.444300 3.557900 3.594100 3.623700 3.722100 3.858900 3.909300 3.923500 3.957100 3.966100 4.000000 4.000000 4.058300 4.213700 4.640600 4.697600 4.762500 4.839400 4.858300 4.930500 4.980000 5.000400 5.065400 5.089900 5.359900 5.368300 5.519900 5.549800 5.618900 5.709700 5.868900 5.922200 5.998000 6.000000 6.150600 6.251400 6.285800 6.412400 6.464400 6.658400 6.666800 6.852500 7.076600 7.333000 7.341400 7.400000 7.458900 7.878300 
	USER_GRAPH
	 -headings 25.oC
	10 data 0, 18.712661, 17.130000, 17.314873, 18.967825, 16.365958, 19.358392, 19.847687, 18.140000, 18.358642, 17.830442, 19.787026, 19.346340, 19.459745, 18.211036, 18.833946, 19.521616, 18.640000, 19.340136, 18.726934, 19.270922, 18.650000, 20.364699, 19.821286, 19.782515, 19.657969, 20.048279, 19.865067, 18.810000, 18.660000, 20.164738, 19.767763, 20.516364, 20.040584, 19.797700, 20.470142, 20.294014, 20.072416, 20.246285, 20.307800, 20.623701, 19.460000, 20.208523, 20.716420, 20.943290, 19.850000, 21.009698, 20.834569, 20.852681, 21.341786, 21.537088, 21.264453, 20.240000, 21.380868, 21.346616, 21.238452, 21.544632, 20.560000, 21.490255, 21.905007, 22.041630, 22.426127, 21.920497, 22.072482, 21.851109, 22.037432, 22.284398, 22.212652, 22.281065, 22.205703, 22.480423, 22.362397, 22.596190, 22.669669, 22.632745, 22.786852, 23.041926, 22.983257, 23.204609, 23.337877, 23.404110, 23.623942, 24.116719, 23.693890, 23.620380, 23.780003, 23.758891, 23.967920, 24.111274, 24.142069, 24.243052, 24.466938, 24.585882, 24.889565, 24.973232, 25.011211, 25.151853, 25.139548, 25.110226, 25.152908, 25.402273, 25.497221, 25.527479, 25.723902, 25.692644, 25.694860, 25.688999, 25.949086, 25.995917, 26.076202, 26.100928, 26.186091, 26.144084, 26.147841, 26.255021, 26.304138, 26.399157, 26.449108, 26.443668, 26.672235, 26.670388, 26.864698, 27.071419, 27.064420, 27.400262, 27.232690, 27.258236, 27.408752, 27.418276, 27.475534, 27.750520, 27.852622, 27.938524, 28.054090, 28.320589, 28.151442, 28.416444, 28.372991, 28.525924, 28.510237, 28.606871, 28.736717, 28.840422, 29.048287, 29.066797, 29.111201, 29.275835, 29.459202, 29.549428, 29.593206, 29.620009, 29.638878, 30.130460, 29.380708, 29.774557, 29.989590, 30.608730, 30.572411, 30.784490, 30.869558, 30.895236, 31.010241, 31.027139, 30.961232, 31.200080, 31.227655, 31.606645, 31.604566, 31.839452, 31.874273, 31.976487, 32.102883, 32.326224, 32.397274, 32.504582, 33.241136, 32.721207, 32.851896, 32.935139, 33.094275, 33.164814, 33.425178, 32.948518, 33.704120, 34.004024, 34.361887, 34.363114, 33.832633, 34.516842, 35.096227, 
	20 dim d(190)
	30 read d(1), d(2), d(3), d(4), d(5), d(6), d(7), d(8), d(9), d(10), d(11), d(12), d(13), d(14), d(15), d(16), d(17), d(18), d(19), d(20), d(21), d(22), d(23), d(24), d(25), d(26), d(27), d(28), d(29), d(30), d(31), d(32), d(33), d(34), d(35), d(36), d(37), d(38), d(39), d(40), d(41), d(42), d(43), d(44), d(45), d(46), d(47), d(48), d(49), d(50), d(51), d(52), d(53), d(54), d(55), d(56), d(57), d(58), d(59), d(60), d(61), d(62), d(63), d(64), d(65), d(66), d(67), d(68), d(69), d(70), d(71), d(72), d(73), d(74), d(75), d(76), d(77), d(78), d(79), d(80), d(81), d(82), d(83), d(84), d(85), d(86), d(87), d(88), d(89), d(90), d(91), d(92), d(93), d(94), d(95), d(96), d(97), d(98), d(99), d(100), d(101), d(102), d(103), d(104), d(105), d(106), d(107), d(108), d(109), d(110), d(111), d(112), d(113), d(114), d(115), d(116), d(117), d(118), d(119), d(120), d(121), d(122), d(123), d(124), d(125), d(126), d(127), d(128), d(129), d(130), d(131), d(132), d(133), d(134), d(135), d(136), d(137), d(138), d(139), d(140), d(141), d(142), d(143), d(144), d(145), d(146), d(147), d(148), d(149), d(150), d(151), d(152), d(153), d(154), d(155), d(156), d(157), d(158), d(159), d(160), d(161), d(162), d(163), d(164), d(165), d(166), d(167), d(168), d(169), d(170), d(171), d(172), d(173), d(174), d(175), d(176), d(177), d(178), d(179), d(180), d(181), d(182), d(183), d(184), d(185), d(186), d(187), d(188), d(189), d(190),
	40 if step_no = 1 then put(rho, 10)
	50 if step_no > 1 then Vmol = (1e3 + tot("Ca") * 110.986) / (tot("Ca") * rho) - 1e3 / (tot("Ca") * get(10))
	60 if step_no = 1 then dif = 0 else dif = Vmol - d(step_no)
	62 if step_no = 1 then goto 90
	70 plot_xy tot("Ca"), d(step_no), line_w = 0, color = Red #aph_x tot("Ca") # dif, str$(tc), str$(pressure), str$(step_no + get(1))
	80 plot_xy tot("Ca"), Vmol, symbol = None, color = Red #step_no = 264 then put(step_no + get(1), 1)
	90 end
	END
-----------------------------------------
Beginning of batch-reaction calculations.
-----------------------------------------

Reaction step 1.

Using solution 1.	
Using temperature 1.	
Using pressure 1.	
Using reaction 1.	

Reaction 1.	

	  0.000e+00 moles of the following reaction have been added:

	                 Relative
	Reactant            moles

	CaCl2                1.00000

	                 Relative
	Element             moles
	Ca                   1.00000
	Cl                   2.00000

-----------------------------Solution composition------------------------------

	Elements           Molality       Moles

	Pure water     

----------------------------Description of solution----------------------------

                                       pH  =   7.000      Charge balance
                                       pe  =   0.176      Adjusted to redox equilibrium
       Specific Conductance (uS/cm, 25 oC) = 0
                          Density (g/cm3)  =   0.99700
                        Activity of water  =   1.000
                           Ionic strength  =   1.001e-07
                       Mass of water (kg)  =   1.000e+00
                 Total alkalinity (eq/kg)  =   3.856e-16
                    Total carbon (mol/kg)  =   0.000e+00
                       Total CO2 (mol/kg)  =   0.000e+00
                      Temperature (deg C)  =  25.00
                           Pressure (atm)  =  0.03
                  Electrical balance (eq)  =  -3.856e-16
 Percent error, 100*(Cat-|An|)/(Cat+|An|)  =  -0.00
                               Iterations  =   8
                                  Total H  = 1.110124e+02
                                  Total O  = 5.550622e+01

----------------------------Distribution of species----------------------------

                                               Log       Log       Log    mole V
   Species          Molality    Activity  Molality  Activity     Gamma   cm3/mol

   OH-             1.001e-07   1.001e-07    -6.999    -7.000    -0.000     -4.11
   H+              1.001e-07   1.001e-07    -6.999    -7.000    -0.000      0.00
   H2O             5.551e+01   1.000e+00     1.744     0.000     0.000     18.07
H(0)          6.310e-18
   H2              3.155e-18   3.155e-18   -17.501   -17.501     0.000     28.61
O(0)          0.000e+00
   O2              0.000e+00   0.000e+00   -57.378   -57.378     0.000     30.40

------------------------------Saturation indices-------------------------------

	Phase               SI   log IAP   log K(298 K,   0 atm)

	H2(g)           -14.40    -17.50   -3.10  H2
	H2O(g)           -1.50      0.00    1.50  H2O
	O2(g)           -54.49    -57.38   -2.89  O2


Reaction step 2.

Using solution 1.	
Using temperature 1.	
Using pressure 1.	
Using reaction 1.	

Reaction 1.	

	  1.256e-02 moles of the following reaction have been added:

	                 Relative
	Reactant            moles

	CaCl2                1.00000

	                 Relative
	Element             moles
	Ca                   1.00000
	Cl                   2.00000

-----------------------------Solution composition------------------------------

	Elements           Molality       Moles

	Ca                1.256e-02   1.256e-02
	Cl                2.512e-02   2.512e-02

----------------------------Description of solution----------------------------

                                       pH  =   6.969      Charge balance
                                       pe  =   0.204      Adjusted to redox equilibrium
       Specific Conductance (uS/cm, 25 oC) = 2836
                          Density (g/cm3)  =   0.99816
                        Activity of water  =   0.999
                           Ionic strength  =   3.768e-02
                       Mass of water (kg)  =   1.000e+00
                 Total alkalinity (eq/kg)  =   1.597e-15
                    Total carbon (mol/kg)  =   0.000e+00
                       Total CO2 (mol/kg)  =   0.000e+00
                      Temperature (deg C)  =  25.00
                           Pressure (atm)  =  0.03
                  Electrical balance (eq)  =   8.704e-11
 Percent error, 100*(Cat-|An|)/(Cat+|An|)  =   0.00
                               Iterations  =   8
                                  Total H  = 1.110124e+02
                                  Total O  = 5.550622e+01

----------------------------Distribution of species----------------------------

                                               Log       Log       Log    mole V
   Species          Molality    Activity  Molality  Activity     Gamma   cm3/mol

   H+              1.241e-07   1.074e-07    -6.906    -6.969    -0.063      0.00
   OH-             1.124e-07   9.326e-08    -6.949    -7.030    -0.081     -3.87
   H2O             5.551e+01   9.994e-01     1.744    -0.000     0.000     18.07
Ca            1.256e-02
   Ca+2            1.256e-02   6.381e-03    -1.901    -2.195    -0.294    -17.80
   CaOH+           1.177e-08   9.855e-09    -7.929    -8.006    -0.077     (0)  
Cl            2.512e-02
   Cl-             2.512e-02   2.088e-02    -1.600    -1.680    -0.080     18.21
H(0)          6.335e-18
   H2              3.167e-18   3.195e-18   -17.499   -17.496     0.004     28.61
O(0)          0.000e+00
   O2              0.000e+00   0.000e+00   -57.393   -57.389     0.004     30.40

------------------------------Saturation indices-------------------------------

	Phase               SI   log IAP   log K(298 K,   0 atm)

	H2(g)           -14.39    -17.50   -3.10  H2
	H2O(g)           -1.50     -0.00    1.50  H2O
	O2(g)           -54.50    -57.39   -2.89  O2


Reaction step 3.

Using solution 1.	
Using temperature 1.	
Using pressure 1.	
Using reaction 1.	

Reaction 1.	

	  2.030e-02 moles of the following reaction have been added:

	                 Relative
	Reactant            moles

	CaCl2                1.00000

	                 Relative
	Element             moles
	Ca                   1.00000
	Cl                   2.00000

-----------------------------Solution composition------------------------------

	Elements           Molality       Moles

	Ca                2.030e-02   2.030e-02
	Cl                4.060e-02   4.060e-02

----------------------------Description of solution----------------------------

                                       pH  =   6.957      Charge balance
                                       pe  =   0.050      Adjusted to redox equilibrium
       Specific Conductance (uS/cm, 25 oC) = 4427
                          Density (g/cm3)  =   0.99887
                        Activity of water  =   0.999
                           Ionic strength  =   6.090e-02
                       Mass of water (kg)  =   1.000e+00
                 Total alkalinity (eq/kg)  =   1.008e-17
                    Total carbon (mol/kg)  =   0.000e+00
                       Total CO2 (mol/kg)  =   0.000e+00
                      Temperature (deg C)  =  25.00
                           Pressure (atm)  =  0.03
                  Electrical balance (eq)  =   4.838e-17
 Percent error, 100*(Cat-|An|)/(Cat+|An|)  =   0.00
                               Iterations  =   9
                                  Total H  = 1.110124e+02
                                  Total O  = 5.550622e+01

----------------------------Distribution of species----------------------------

                                               Log       Log       Log    mole V
   Species          Molality    Activity  Molality  Activity     Gamma   cm3/mol

   H+              1.305e-07   1.104e-07    -6.884    -6.957    -0.073      0.00
   OH-             1.137e-07   9.069e-08    -6.944    -7.042    -0.098     -3.79
   H2O             5.551e+01   9.990e-01     1.744    -0.000     0.000     18.07
Ca            2.030e-02
   Ca+2            2.030e-02   9.105e-03    -1.693    -2.041    -0.348    -17.68
   CaOH+           1.688e-08   1.367e-08    -7.773    -7.864    -0.092     (0)  
Cl            4.060e-02
   Cl-             4.060e-02   3.246e-02    -1.391    -1.489    -0.097     18.26
H(0)          1.349e-17
   H2              6.743e-18   6.838e-18   -17.171   -17.165     0.006     28.61
O(0)          0.000e+00
   O2              0.000e+00   0.000e+00   -58.057   -58.051     0.006     30.40

------------------------------Saturation indices-------------------------------

	Phase               SI   log IAP   log K(298 K,   0 atm)

	H2(g)           -14.06    -17.17   -3.10  H2
	H2O(g)           -1.50     -0.00    1.50  H2O
	O2(g)           -55.16    -58.05   -2.89  O2


Reaction step 4.

Using solution 1.	
Using temperature 1.	
Using pressure 1.	
Using reaction 1.	

Reaction 1.	

	  2.200e-02 moles of the following reaction have been added:

	                 Relative
	Reactant            moles

	CaCl2                1.00000

	                 Relative
	Element             moles
	Ca                   1.00000
	Cl                   2.00000

-----------------------------Solution composition------------------------------

	Elements           Molality       Moles

	Ca                2.200e-02   2.200e-02
	Cl                4.400e-02   4.400e-02

----------------------------Description of solution----------------------------

                                       pH  =   6.955      Charge balance
                                       pe  =   0.139      Adjusted to redox equilibrium
       Specific Conductance (uS/cm, 25 oC) = 4769
                          Density (g/cm3)  =   0.99902
                        Activity of water  =   0.999
                           Ionic strength  =   6.600e-02
                       Mass of water (kg)  =   1.000e+00
                 Total alkalinity (eq/kg)  =   4.070e-16
                    Total carbon (mol/kg)  =   0.000e+00
                       Total CO2 (mol/kg)  =   0.000e+00
                      Temperature (deg C)  =  25.00
                           Pressure (atm)  =  0.03
                  Electrical balance (eq)  =   2.162e-10
 Percent error, 100*(Cat-|An|)/(Cat+|An|)  =   0.00
                               Iterations  =  13
                                  Total H  = 1.110124e+02
                                  Total O  = 5.550622e+01

----------------------------Distribution of species----------------------------

                                               Log       Log       Log    mole V
   Species          Molality    Activity  Molality  Activity     Gamma   cm3/mol

   H+              1.318e-07   1.110e-07    -6.880    -6.955    -0.074      0.00
   OH-             1.138e-07   9.019e-08    -6.944    -7.045    -0.101     -3.77
   H2O             5.551e+01   9.989e-01     1.744    -0.000     0.000     18.07
Ca            2.200e-02
   Ca+2            2.200e-02   9.654e-03    -1.658    -2.015    -0.358    -17.66
   CaOH+           1.791e-08   1.442e-08    -7.747    -7.841    -0.094     (0)  
Cl            4.400e-02
   Cl-             4.400e-02   3.494e-02    -1.357    -1.457    -0.100     18.27
H(0)          9.061e-18
   H2              4.530e-18   4.600e-18   -17.344   -17.337     0.007     28.61
O(0)          0.000e+00
   O2              0.000e+00   0.000e+00   -57.713   -57.706     0.007     30.40

------------------------------Saturation indices-------------------------------

	Phase               SI   log IAP   log K(298 K,   0 atm)

	H2(g)           -14.24    -17.34   -3.10  H2
	H2O(g)           -1.50     -0.00    1.50  H2O
	O2(g)           -54.81    -57.71   -2.89  O2


Reaction step 5.

Using solution 1.	
Using temperature 1.	
Using pressure 1.	
Using reaction 1.	

Reaction 1.	

	  2.235e-02 moles of the following reaction have been added:

	                 Relative
	Reactant            moles

	CaCl2                1.00000

	                 Relative
	Element             moles
	Ca                   1.00000
	Cl                   2.00000

-----------------------------Solution composition------------------------------

	Elements           Molality       Moles

	Ca                2.235e-02   2.235e-02
	Cl                4.470e-02   4.470e-02

----------------------------Description of solution----------------------------

                                       pH  =   6.954      Charge balance
                                       pe  =   0.162      Adjusted to redox equilibrium
       Specific Conductance (uS/cm, 25 oC) = 4839
                          Density (g/cm3)  =   0.99906
                        Activity of water  =   0.999
                           Ionic strength  =   6.705e-02
                       Mass of water (kg)  =   1.000e+00
                 Total alkalinity (eq/kg)  =   1.516e-17
                    Total carbon (mol/kg)  =   0.000e+00
                       Total CO2 (mol/kg)  =   0.000e+00
                      Temperature (deg C)  =  25.00
                           Pressure (atm)  =  0.03
                  Electrical balance (eq)  =   5.042e-12
 Percent error, 100*(Cat-|An|)/(Cat+|An|)  =   0.00
                               Iterations  =  20
                                  Total H  = 1.110124e+02
                                  Total O  = 5.550622e+01

----------------------------Distribution of species----------------------------

                                               Log       Log       Log    mole V
   Species          Molality    Activity  Molality  Activity     Gamma   cm3/mol

   H+              1.320e-07   1.111e-07    -6.879    -6.954    -0.075      0.00
   OH-             1.139e-07   9.009e-08    -6.944    -7.045    -0.102     -3.77
   H2O             5.551e+01   9.989e-01     1.744    -0.000     0.000     18.07
Ca            2.235e-02
   Ca+2            2.235e-02   9.765e-03    -1.651    -2.010    -0.360    -17.66
   CaOH+           1.812e-08   1.457e-08    -7.742    -7.837    -0.095     (0)  
Cl            4.470e-02
   Cl-             4.470e-02   3.544e-02    -1.350    -1.450    -0.101     18.27
H(0)          8.154e-18
   H2              4.077e-18   4.141e-18   -17.390   -17.383     0.007     28.61
O(0)          0.000e+00
   O2              0.000e+00   0.000e+00   -57.622   -57.615     0.007     30.40

------------------------------Saturation indices-------------------------------

	Phase               SI   log IAP   log K(298 K,   0 atm)

	H2(g)           -14.28    -17.38   -3.10  H2
	H2O(g)           -1.50     -0.00    1.50  H2O
	O2(g)           -54.72    -57.62   -2.89  O2


Reaction step 6.

Using solution 1.	
Using temperature 1.	
Using pressure 1.	
Using reaction 1.	

Reaction 1.	

	  2.390e-02 moles of the following reaction have been added:

	                 Relative
	Reactant            moles

	CaCl2                1.00000

	                 Relative
	Element             moles
	Ca                   1.00000
	Cl                   2.00000

-----------------------------Solution composition------------------------------

	Elements           Molality       Moles

	Ca                2.390e-02   2.390e-02
	Cl                4.780e-02   4.780e-02

----------------------------Description of solution----------------------------

                                       pH  =   6.952      Charge balance
                                       pe  =   0.082      Adjusted to redox equilibrium
       Specific Conductance (uS/cm, 25 oC) = 5147
                          Density (g/cm3)  =   0.99920
                        Activity of water  =   0.999
                           Ionic strength  =   7.170e-02
                       Mass of water (kg)  =   1.000e+00
                 Total alkalinity (eq/kg)  =   1.524e-17
                    Total carbon (mol/kg)  =   0.000e+00
                       Total CO2 (mol/kg)  =   0.000e+00
                      Temperature (deg C)  =  25.00
                           Pressure (atm)  =  0.03
                  Electrical balance (eq)  =   2.657e-12
 Percent error, 100*(Cat-|An|)/(Cat+|An|)  =   0.00
                               Iterations  =  11
                                  Total H  = 1.110124e+02
                                  Total O  = 5.550622e+01

----------------------------Distribution of species----------------------------

                                               Log       Log       Log    mole V
   Species          Molality    Activity  Molality  Activity     Gamma   cm3/mol

   H+              1.331e-07   1.116e-07    -6.876    -6.952    -0.076      0.00
   OH-             1.140e-07   8.966e-08    -6.943    -7.047    -0.104     -3.75
   H2O             5.551e+01   9.988e-01     1.744    -0.001     0.000     18.07
Ca            2.390e-02
   Ca+2            2.390e-02   1.025e-02    -1.622    -1.989    -0.368    -17.64
   CaOH+           1.902e-08   1.522e-08    -7.721    -7.818    -0.097     (0)  
Cl            4.780e-02
   Cl-             4.780e-02   3.768e-02    -1.321    -1.424    -0.103     18.28
H(0)          1.188e-17
   H2              5.939e-18   6.038e-18   -17.226   -17.219     0.007     28.61
O(0)          0.000e+00
   O2              0.000e+00   0.000e+00   -57.950   -57.943     0.007     30.40

------------------------------Saturation indices-------------------------------

	Phase               SI   log IAP   log K(298 K,   0 atm)

	H2(g)           -14.12    -17.22   -3.10  H2
	H2O(g)           -1.50     -0.00    1.50  H2O
	O2(g)           -55.05    -57.94   -2.89  O2


Reaction step 7.

Using solution 1.	
Using temperature 1.	
Using pressure 1.	
Using reaction 1.	

Reaction 1.	

	  3.287e-02 moles of the following reaction have been added:

	                 Relative
	Reactant            moles

	CaCl2                1.00000

	                 Relative
	Element             moles
	Ca                   1.00000
	Cl                   2.00000

-----------------------------Solution composition------------------------------

	Elements           Molality       Moles

	Ca                3.287e-02   3.287e-02
	Cl                6.574e-02   6.574e-02

----------------------------Description of solution----------------------------

                                       pH  =   6.941      Charge balance
                                       pe  =   0.382      Adjusted to redox equilibrium
       Specific Conductance (uS/cm, 25 oC) = 6901
                          Density (g/cm3)  =   1.00002
                        Activity of water  =   0.998
                           Ionic strength  =   9.861e-02
                       Mass of water (kg)  =   1.000e+00
                 Total alkalinity (eq/kg)  =   3.102e-18
                    Total carbon (mol/kg)  =   0.000e+00
                       Total CO2 (mol/kg)  =   0.000e+00
                      Temperature (deg C)  =  25.00
                           Pressure (atm)  =  0.03
                  Electrical balance (eq)  =   3.009e-15
 Percent error, 100*(Cat-|An|)/(Cat+|An|)  =   0.00
                               Iterations  =  16
                                  Total H  = 1.110124e+02
                                  Total O  = 5.550622e+01

----------------------------Distribution of species----------------------------

                                               Log       Log       Log    mole V
   Species          Molality    Activity  Molality  Activity     Gamma   cm3/mol

   H+              1.385e-07   1.144e-07    -6.858    -6.941    -0.083      0.00
   OH-             1.147e-07   8.744e-08    -6.941    -7.058    -0.118     -3.67
   H2O             5.551e+01   9.983e-01     1.744    -0.001     0.000     18.07
Ca            3.287e-02
   Ca+2            3.287e-02   1.289e-02    -1.483    -1.890    -0.406    -17.55
   CaOH+           2.388e-08   1.867e-08    -7.622    -7.729    -0.107     (0)  
Cl            6.574e-02
   Cl-             6.574e-02   5.031e-02    -1.182    -1.298    -0.116     18.32
H(0)          3.114e-18
   H2              1.557e-18   1.593e-18   -17.808   -17.798     0.010     28.61
O(0)          0.000e+00
   O2              0.000e+00   0.000e+00   -56.796   -56.786     0.010     30.40

------------------------------Saturation indices-------------------------------

	Phase               SI   log IAP   log K(298 K,   0 atm)

	H2(g)           -14.70    -17.80   -3.10  H2
	H2O(g)           -1.50     -0.00    1.50  H2O
	O2(g)           -53.89    -56.79   -2.89  O2


Reaction step 8.

Using solution 1.	
Using temperature 1.	
Using pressure 1.	
Using reaction 1.	

Reaction 1.	

	  3.340e-02 moles of the following reaction have been added:

	                 Relative
	Reactant            moles

	CaCl2                1.00000

	                 Relative
	Element             moles
	Ca                   1.00000
	Cl                   2.00000

-----------------------------Solution composition------------------------------

	Elements           Molality       Moles

	Ca                3.340e-02   3.340e-02
	Cl                6.680e-02   6.680e-02

----------------------------Description of solution----------------------------

                                       pH  =   6.941      Charge balance
                                       pe  =  10.694      Adjusted to redox equilibrium
       Specific Conductance (uS/cm, 25 oC) = 7003
                          Density (g/cm3)  =   1.00006
                        Activity of water  =   0.998
                           Ionic strength  =   1.002e-01
                       Mass of water (kg)  =   1.000e+00
                 Total alkalinity (eq/kg)  =   6.595e-18
                    Total carbon (mol/kg)  =   0.000e+00
                       Total CO2 (mol/kg)  =   0.000e+00
                      Temperature (deg C)  =  25.00
                           Pressure (atm)  =  0.03
                  Electrical balance (eq)  =   3.303e-12
 Percent error, 100*(Cat-|An|)/(Cat+|An|)  =   0.00
                               Iterations  =  20
                                  Total H  = 1.110124e+02
                                  Total O  = 5.550622e+01

----------------------------Distribution of species----------------------------

                                               Log       Log       Log    mole V
   Species          Molality    Activity  Molality  Activity     Gamma   cm3/mol

   H+              1.388e-07   1.146e-07    -6.858    -6.941    -0.083      0.00
   OH-             1.147e-07   8.732e-08    -6.940    -7.059    -0.118     -3.66
   H2O             5.551e+01   9.983e-01     1.744    -0.001     0.000     18.07
Ca            3.340e-02
   Ca+2            3.340e-02   1.304e-02    -1.476    -1.885    -0.408    -17.54
   CaOH+           2.415e-08   1.886e-08    -7.617    -7.724    -0.107     (0)  
Cl            6.680e-02
   Cl-             6.680e-02   5.104e-02    -1.175    -1.292    -0.117     18.32
H(0)          7.425e-39
   H2              3.712e-39   3.799e-39   -38.430   -38.420     0.010     28.61
O(0)          5.625e-16
   O2              2.813e-16   2.878e-16   -15.551   -15.541     0.010     30.40

------------------------------Saturation indices-------------------------------

	Phase               SI   log IAP   log K(298 K,   0 atm)

	H2(g)           -35.32    -38.42   -3.10  H2
	H2O(g)           -1.50     -0.00    1.50  H2O
	O2(g)           -12.65    -15.54   -2.89  O2


Reaction step 9.

Using solution 1.	
Using temperature 1.	
Using pressure 1.	
Using reaction 1.	

Reaction 1.	

	  3.700e-02 moles of the following reaction have been added:

	                 Relative
	Reactant            moles

	CaCl2                1.00000

	                 Relative
	Element             moles
	Ca                   1.00000
	Cl                   2.00000

-----------------------------Solution composition------------------------------

	Elements           Molality       Moles

	Ca                3.700e-02   3.700e-02
	Cl                7.400e-02   7.400e-02

----------------------------Description of solution----------------------------

                                       pH  =   6.937      Charge balance
                                       pe  =  10.722      Adjusted to redox equilibrium
       Specific Conductance (uS/cm, 25 oC) = 7693
                          Density (g/cm3)  =   1.00039
                        Activity of water  =   0.998
                           Ionic strength  =   1.110e-01
                       Mass of water (kg)  =   1.000e+00
                 Total alkalinity (eq/kg)  =   1.332e-16
                    Total carbon (mol/kg)  =   0.000e+00
                       Total CO2 (mol/kg)  =   0.000e+00
                      Temperature (deg C)  =  25.00
                           Pressure (atm)  =  0.03
                  Electrical balance (eq)  =   1.913e-10
 Percent error, 100*(Cat-|An|)/(Cat+|An|)  =   0.00
                               Iterations  =  20
                                  Total H  = 1.110124e+02
                                  Total O  = 5.550622e+01

----------------------------Distribution of species----------------------------

                                               Log       Log       Log    mole V
   Species          Molality    Activity  Molality  Activity     Gamma   cm3/mol

   H+              1.408e-07   1.156e-07    -6.851    -6.937    -0.086      0.00
   OH-             1.148e-07   8.654e-08    -6.940    -7.063    -0.123     -3.63
   H2O             5.551e+01   9.981e-01     1.744    -0.001     0.000     18.07
Ca            3.700e-02
   Ca+2            3.700e-02   1.403e-02    -1.432    -1.853    -0.421    -17.51
   CaOH+           2.594e-08   2.011e-08    -7.586    -7.697    -0.110     (0)  
Cl            7.400e-02
   Cl-             7.400e-02   5.598e-02    -1.131    -1.252    -0.121     18.34
H(0)          6.647e-39
   H2              3.323e-39   3.409e-39   -38.478   -38.467     0.011     28.61
O(0)          6.965e-16
   O2              3.482e-16   3.573e-16   -15.458   -15.447     0.011     30.40

------------------------------Saturation indices-------------------------------

	Phase               SI   log IAP   log K(298 K,   0 atm)

	H2(g)           -35.37    -38.47   -3.10  H2
	H2O(g)           -1.50     -0.00    1.50  H2O
	O2(g)           -12.55    -15.45   -2.89  O2


Reaction step 10.

Using solution 1.	
Using temperature 1.	
Using pressure 1.	
Using reaction 1.	

Reaction 1.	

	  4.500e-02 moles of the following reaction have been added:

	                 Relative
	Reactant            moles

	CaCl2                1.00000

	                 Relative
	Element             moles
	Ca                   1.00000
	Cl                   2.00000

-----------------------------Solution composition------------------------------

	Elements           Molality       Moles

	Ca                4.500e-02   4.500e-02
	Cl                9.000e-02   9.000e-02

----------------------------Description of solution----------------------------

                                       pH  =   6.929      Charge balance
                                       pe  =  -0.041      Adjusted to redox equilibrium
       Specific Conductance (uS/cm, 25 oC) = 9206
                          Density (g/cm3)  =   1.00112
                        Activity of water  =   0.998
                           Ionic strength  =   1.350e-01
                       Mass of water (kg)  =   1.000e+00
                 Total alkalinity (eq/kg)  =   6.649e-18
                    Total carbon (mol/kg)  =   0.000e+00
                       Total CO2 (mol/kg)  =   0.000e+00
                      Temperature (deg C)  =  25.00
                           Pressure (atm)  =  0.03
                  Electrical balance (eq)  =   1.845e-13
 Percent error, 100*(Cat-|An|)/(Cat+|An|)  =   0.00
                               Iterations  =  18
                                  Total H  = 1.110124e+02
                                  Total O  = 5.550622e+01

----------------------------Distribution of species----------------------------

                                               Log       Log       Log    mole V
   Species          Molality    Activity  Molality  Activity     Gamma   cm3/mol

   H+              1.447e-07   1.177e-07    -6.839    -6.929    -0.090      0.00
   OH-             1.151e-07   8.495e-08    -6.939    -7.071    -0.132     -3.56
   H2O             5.551e+01   9.977e-01     1.744    -0.001     0.000     18.07
Ca            4.500e-02
   Ca+2            4.500e-02   1.614e-02    -1.347    -1.792    -0.445    -17.45
   CaOH+           2.969e-08   2.271e-08    -7.527    -7.644    -0.116     (0)  
Cl            9.000e-02
   Cl-             9.000e-02   6.676e-02    -1.046    -1.175    -0.130     18.37
H(0)          2.294e-17
   H2              1.147e-17   1.183e-17   -16.940   -16.927     0.014     28.61
O(0)          0.000e+00
   O2              0.000e+00   0.000e+00   -58.542   -58.528     0.014     30.40

------------------------------Saturation indices-------------------------------

	Phase               SI   log IAP   log K(298 K,   0 atm)

	H2(g)           -13.83    -16.93   -3.10  H2
	H2O(g)           -1.50     -0.00    1.50  H2O
	O2(g)           -55.64    -58.53   -2.89  O2


Reaction step 11.

Using solution 1.	
Using temperature 1.	
Using pressure 1.	
Using reaction 1.	

Reaction 1.	

	  4.690e-02 moles of the following reaction have been added:

	                 Relative
	Reactant            moles

	CaCl2                1.00000

	                 Relative
	Element             moles
	Ca                   1.00000
	Cl                   2.00000

-----------------------------Solution composition------------------------------

	Elements           Molality       Moles

	Ca                4.690e-02   4.690e-02
	Cl                9.380e-02   9.380e-02

----------------------------Description of solution----------------------------

                                       pH  =   6.927      Charge balance
                                       pe  =   0.054      Adjusted to redox equilibrium
       Specific Conductance (uS/cm, 25 oC) = 9561
                          Density (g/cm3)  =   1.00129
                        Activity of water  =   0.998
                           Ionic strength  =   1.407e-01
                       Mass of water (kg)  =   1.000e+00
                 Total alkalinity (eq/kg)  =   1.246e-17
                    Total carbon (mol/kg)  =   0.000e+00
                       Total CO2 (mol/kg)  =   0.000e+00
                      Temperature (deg C)  =  25.00
                           Pressure (atm)  =  0.03
                  Electrical balance (eq)  =   1.384e-13
 Percent error, 100*(Cat-|An|)/(Cat+|An|)  =   0.00
                               Iterations  =  54
                                  Total H  = 1.110124e+02
                                  Total O  = 5.550622e+01

----------------------------Distribution of species----------------------------

                                               Log       Log       Log    mole V
   Species          Molality    Activity  Molality  Activity     Gamma   cm3/mol

   H+              1.456e-07   1.182e-07    -6.837    -6.927    -0.091      0.00
   OH-             1.151e-07   8.460e-08    -6.939    -7.073    -0.134     -3.54
   H2O             5.551e+01   9.976e-01     1.744    -0.001     0.000     18.07
Ca            4.690e-02
   Ca+2            4.690e-02   1.663e-02    -1.329    -1.779    -0.450    -17.43
   CaOH+           3.054e-08   2.330e-08    -7.515    -7.633    -0.118     (0)  
Cl            9.380e-02
   Cl-             9.380e-02   6.929e-02    -1.028    -1.159    -0.132     18.37
H(0)          1.496e-17
   H2              7.482e-18   7.728e-18   -17.126   -17.112     0.014     28.61
O(0)          0.000e+00
   O2              0.000e+00   0.000e+00   -58.172   -58.158     0.014     30.40

------------------------------Saturation indices-------------------------------

	Phase               SI   log IAP   log K(298 K,   0 atm)

	H2(g)           -14.01    -17.11   -3.10  H2
	H2O(g)           -1.50     -0.00    1.50  H2O
	O2(g)           -55.27    -58.16   -2.89  O2


Reaction step 12.

Using solution 1.	
Using temperature 1.	
Using pressure 1.	
Using reaction 1.	

Reaction 1.	

	  5.000e-02 moles of the following reaction have been added:

	                 Relative
	Reactant            moles

	CaCl2                1.00000

	                 Relative
	Element             moles
	Ca                   1.00000
	Cl                   2.00000

-----------------------------Solution composition------------------------------

	Elements           Molality       Moles

	Ca                5.000e-02   5.000e-02
	Cl                1.000e-01   1.000e-01

----------------------------Description of solution----------------------------

                                       pH  =   6.925      Charge balance
                                       pe  =  -0.084      Adjusted to redox equilibrium
       Specific Conductance (uS/cm, 25 oC) = 10139
                          Density (g/cm3)  =   1.00157
                        Activity of water  =   0.997
                           Ionic strength  =   1.500e-01
                       Mass of water (kg)  =   1.000e+00
                 Total alkalinity (eq/kg)  =   6.126e-17
                    Total carbon (mol/kg)  =   0.000e+00
                       Total CO2 (mol/kg)  =   0.000e+00
                      Temperature (deg C)  =  25.00
                           Pressure (atm)  =  0.03
                  Electrical balance (eq)  =   1.025e-10
 Percent error, 100*(Cat-|An|)/(Cat+|An|)  =   0.00
                               Iterations  =   9
                                  Total H  = 1.110124e+02
                                  Total O  = 5.550622e+01

----------------------------Distribution of species----------------------------

                                               Log       Log       Log    mole V
   Species          Molality    Activity  Molality  Activity     Gamma   cm3/mol

   H+              1.470e-07   1.189e-07    -6.833    -6.925    -0.092      0.00
   OH-             1.151e-07   8.405e-08    -6.939    -7.075    -0.137     -3.51
   H2O             5.551e+01   9.974e-01     1.744    -0.001     0.000     18.07
Ca            5.000e-02
   Ca+2            5.000e-02   1.741e-02    -1.301    -1.759    -0.458    -17.41
   CaOH+           3.190e-08   2.423e-08    -7.496    -7.616    -0.119     (0)  
Cl            1.000e-01
   Cl-             1.000e-01   7.338e-02    -1.000    -1.134    -0.134     18.38
H(0)          2.848e-17
   H2              1.424e-17   1.474e-17   -16.846   -16.831     0.015     28.61
O(0)          0.000e+00
   O2              0.000e+00   0.000e+00   -58.734   -58.719     0.015     30.40

------------------------------Saturation indices-------------------------------

	Phase               SI   log IAP   log K(298 K,   0 atm)

	H2(g)           -13.73    -16.83   -3.10  H2
	H2O(g)           -1.50     -0.00    1.50  H2O
	O2(g)           -55.83    -58.72   -2.89  O2


Reaction step 13.

Using solution 1.	
Using temperature 1.	
Using pressure 1.	
Using reaction 1.	

Reaction 1.	

	  5.001e-02 moles of the following reaction have been added:

	                 Relative
	Reactant            moles

	CaCl2                1.00000

	                 Relative
	Element             moles
	Ca                   1.00000
	Cl                   2.00000

-----------------------------Solution composition------------------------------

	Elements           Molality       Moles

	Ca                5.001e-02   5.001e-02
	Cl                1.000e-01   1.000e-01

----------------------------Description of solution----------------------------

                                       pH  =   6.925      Charge balance
                                       pe  =   0.189      Adjusted to redox equilibrium
       Specific Conductance (uS/cm, 25 oC) = 10141
                          Density (g/cm3)  =   1.00157
                        Activity of water  =   0.997
                           Ionic strength  =   1.500e-01
                       Mass of water (kg)  =   1.000e+00
                 Total alkalinity (eq/kg)  =  -1.248e-18
                    Total carbon (mol/kg)  =   0.000e+00
                       Total CO2 (mol/kg)  =   0.000e+00
                      Temperature (deg C)  =  25.00
                           Pressure (atm)  =  0.03
                  Electrical balance (eq)  =   3.132e-14
 Percent error, 100*(Cat-|An|)/(Cat+|An|)  =   0.00
                               Iterations  =  23
                                  Total H  = 1.110124e+02
                                  Total O  = 5.550622e+01

----------------------------Distribution of species----------------------------

                                               Log       Log       Log    mole V
   Species          Molality    Activity  Molality  Activity     Gamma   cm3/mol

   H+              1.470e-07   1.189e-07    -6.833    -6.925    -0.092      0.00
   OH-             1.151e-07   8.405e-08    -6.939    -7.075    -0.137     -3.51
   H2O             5.551e+01   9.974e-01     1.744    -0.001     0.000     18.07
Ca            5.001e-02
   Ca+2            5.001e-02   1.741e-02    -1.301    -1.759    -0.458    -17.41
   CaOH+           3.190e-08   2.423e-08    -7.496    -7.616    -0.119     (0)  
Cl            1.000e-01
   Cl-             1.000e-01   7.339e-02    -1.000    -1.134    -0.134     18.38
H(0)          8.090e-18
   H2              4.045e-18   4.187e-18   -17.393   -17.378     0.015     28.61
O(0)          0.000e+00
   O2              0.000e+00   0.000e+00   -57.641   -57.626     0.015     30.40

------------------------------Saturation indices-------------------------------

	Phase               SI   log IAP   log K(298 K,   0 atm)

	H2(g)           -14.28    -17.38   -3.10  H2
	H2O(g)           -1.50     -0.00    1.50  H2O
	O2(g)           -54.73    -57.63   -2.89  O2


Reaction step 14.

Using solution 1.	
Using temperature 1.	
Using pressure 1.	
Using reaction 1.	

Reaction 1.	

	  5.050e-02 moles of the following reaction have been added:

	                 Relative
	Reactant            moles

	CaCl2                1.00000

	                 Relative
	Element             moles
	Ca                   1.00000
	Cl                   2.00000

-----------------------------Solution composition------------------------------

	Elements           Molality       Moles

	Ca                5.050e-02   5.050e-02
	Cl                1.010e-01   1.010e-01

----------------------------Description of solution----------------------------

                                       pH  =   6.924      Charge balance
                                       pe  =  -0.256      Adjusted to redox equilibrium
       Specific Conductance (uS/cm, 25 oC) = 10232
                          Density (g/cm3)  =   1.00162
                        Activity of water  =   0.997
                           Ionic strength  =   1.515e-01
                       Mass of water (kg)  =   1.000e+00
                 Total alkalinity (eq/kg)  =   1.461e-17
                    Total carbon (mol/kg)  =   0.000e+00
                       Total CO2 (mol/kg)  =   0.000e+00
                      Temperature (deg C)  =  25.00
                           Pressure (atm)  =  0.03
                  Electrical balance (eq)  =   1.199e-14
 Percent error, 100*(Cat-|An|)/(Cat+|An|)  =   0.00
                               Iterations  =  17
                                  Total H  = 1.110124e+02
                                  Total O  = 5.550622e+01

----------------------------Distribution of species----------------------------

                                               Log       Log       Log    mole V
   Species          Molality    Activity  Molality  Activity     Gamma   cm3/mol

   H+              1.473e-07   1.191e-07    -6.832    -6.924    -0.092      0.00
   OH-             1.151e-07   8.396e-08    -6.939    -7.076    -0.137     -3.51
   H2O             5.551e+01   9.974e-01     1.744    -0.001     0.000     18.07
Ca            5.050e-02
   Ca+2            5.050e-02   1.753e-02    -1.297    -1.756    -0.459    -17.41
   CaOH+           3.212e-08   2.438e-08    -7.493    -7.613    -0.120     (0)  
Cl            1.010e-01
   Cl-             1.010e-01   7.404e-02    -0.996    -1.131    -0.135     18.39
H(0)          6.287e-17
   H2              3.144e-17   3.255e-17   -16.503   -16.487     0.015     28.61
O(0)          0.000e+00
   O2              0.000e+00   0.000e+00   -59.423   -59.407     0.015     30.40

------------------------------Saturation indices-------------------------------

	Phase               SI   log IAP   log K(298 K,   0 atm)

	H2(g)           -13.39    -16.49   -3.10  H2
	H2O(g)           -1.50     -0.00    1.50  H2O
	O2(g)           -56.52    -59.41   -2.89  O2


Reaction step 15.

Using solution 1.	
Using temperature 1.	
Using pressure 1.	
Using reaction 1.	

Reaction 1.	

	  5.900e-02 moles of the following reaction have been added:

	                 Relative
	Reactant            moles

	CaCl2                1.00000

	                 Relative
	Element             moles
	Ca                   1.00000
	Cl                   2.00000

-----------------------------Solution composition------------------------------

	Elements           Molality       Moles

	Ca                5.900e-02   5.900e-02
	Cl                1.180e-01   1.180e-01

----------------------------Description of solution----------------------------

                                       pH  =   6.917      Charge balance
                                       pe  =   0.106      Adjusted to redox equilibrium
       Specific Conductance (uS/cm, 25 oC) = 11799
                          Density (g/cm3)  =   1.00238
                        Activity of water  =   0.997
                           Ionic strength  =   1.770e-01
                       Mass of water (kg)  =   1.000e+00
                 Total alkalinity (eq/kg)  =   3.575e-18
                    Total carbon (mol/kg)  =   0.000e+00
                       Total CO2 (mol/kg)  =   0.000e+00
                      Temperature (deg C)  =  25.00
                           Pressure (atm)  =  0.03
                  Electrical balance (eq)  =   1.968e-13
 Percent error, 100*(Cat-|An|)/(Cat+|An|)  =   0.00
                               Iterations  =  18
                                  Total H  = 1.110124e+02
                                  Total O  = 5.550622e+01

----------------------------Distribution of species----------------------------

                                               Log       Log       Log    mole V
   Species          Molality    Activity  Molality  Activity     Gamma   cm3/mol

   H+              1.508e-07   1.210e-07    -6.821    -6.917    -0.096      0.00
   OH-             1.152e-07   8.256e-08    -6.939    -7.083    -0.145     -3.44
   H2O             5.551e+01   9.970e-01     1.744    -0.001     0.000     18.07
Ca            5.900e-02
   Ca+2            5.900e-02   1.961e-02    -1.229    -1.708    -0.478    -17.35
   CaOH+           3.566e-08   2.681e-08    -7.448    -7.572    -0.124     (0)  
Cl            1.180e-01
   Cl-             1.180e-01   8.510e-02    -0.928    -1.070    -0.142     18.41
H(0)          1.221e-17
   H2              6.103e-18   6.357e-18   -17.214   -17.197     0.018     28.61
O(0)          0.000e+00
   O2              0.000e+00   0.000e+00   -58.007   -57.989     0.018     30.40

------------------------------Saturation indices-------------------------------

	Phase               SI   log IAP   log K(298 K,   0 atm)

	H2(g)           -14.10    -17.20   -3.10  H2
	H2O(g)           -1.50     -0.00    1.50  H2O
	O2(g)           -55.10    -57.99   -2.89  O2


Reaction step 16.

Using solution 1.	
Using temperature 1.	
Using pressure 1.	
Using reaction 1.	

Reaction 1.	

	  5.940e-02 moles of the following reaction have been added:

	                 Relative
	Reactant            moles

	CaCl2                1.00000

	                 Relative
	Element             moles
	Ca                   1.00000
	Cl                   2.00000

-----------------------------Solution composition------------------------------

	Elements           Molality       Moles

	Ca                5.940e-02   5.940e-02
	Cl                1.188e-01   1.188e-01

[...]
                                       pe  =   4.733      Adjusted to redox equilibrium
       Specific Conductance (uS/cm, 127 oC) = 72749
                          Density (g/cm3)  =   0.94689
                        Activity of water  =   0.995
                           Ionic strength  =   3.042e-01
                       Mass of water (kg)  =   1.000e+00
                 Total alkalinity (eq/kg)  =   1.167e-17
                    Total carbon (mol/kg)  =   0.000e+00
                       Total CO2 (mol/kg)  =   0.000e+00
                      Temperature (deg C)  = 127.00
                           Pressure (atm)  =  2.43
                  Electrical balance (eq)  =   2.211e-16
 Percent error, 100*(Cat-|An|)/(Cat+|An|)  =   0.00
                               Iterations  =   7
                                  Total H  = 1.110124e+02
                                  Total O  = 5.550622e+01

----------------------------Distribution of species----------------------------

                                               Log       Log       Log    mole V
   Species          Molality    Activity  Molality  Activity     Gamma   cm3/mol

   H+              1.730e-06   1.281e-06    -5.762    -5.892    -0.130      0.00
   OH-             1.726e-06   1.057e-06    -5.763    -5.976    -0.213     -7.44
   H2O             5.551e+01   9.948e-01     1.744    -0.002     0.000     19.22
Ca            1.014e-01
   Ca+2            1.014e-01   2.137e-02    -0.994    -1.670    -0.676    -18.90
   CaOH+           4.079e-09   2.755e-09    -8.389    -8.560    -0.170     (0)  
Cl            2.028e-01
   Cl-             2.028e-01   1.255e-01    -0.693    -0.901    -0.208     15.10
H(0)          3.476e-25
   H2              1.738e-25   1.864e-25   -24.760   -24.730     0.030     28.56
O(0)          7.433e-19
   O2              3.717e-19   3.986e-19   -18.430   -18.399     0.030     34.91

------------------------------Saturation indices-------------------------------

	Phase               SI   log IAP   log K(400 K,   2 atm)

	H2(g)           -21.69    -24.73   -3.04  H2
	H2O(g)            0.38     -0.00   -0.38  H2O
	O2(g)           -15.31    -18.40   -3.09  O2


Reaction step 4.

Using solution 1.	
Using temperature 1.	
Using pressure 1.	
Using reaction 1.	

Reaction 1.	

	  2.722e-01 moles of the following reaction have been added:

	                 Relative
	Reactant            moles

	CaCl2                1.00000

	                 Relative
	Element             moles
	Ca                   1.00000
	Cl                   2.00000

-----------------------------Solution composition------------------------------

	Elements           Molality       Moles

	Ca                2.722e-01   2.722e-01
	Cl                5.444e-01   5.444e-01

----------------------------Description of solution----------------------------

                                       pH  =   5.872      Charge balance
                                       pe  =   4.822      Adjusted to redox equilibrium
       Specific Conductance (uS/cm, 127 oC) = 156728
                          Density (g/cm3)  =   0.96219
                        Activity of water  =   0.986
                           Ionic strength  =   8.166e-01
                       Mass of water (kg)  =   1.000e+00
                 Total alkalinity (eq/kg)  =   9.082e-17
                    Total carbon (mol/kg)  =   0.000e+00
                       Total CO2 (mol/kg)  =   0.000e+00
                      Temperature (deg C)  = 127.00
                           Pressure (atm)  =  2.43
                  Electrical balance (eq)  =   5.155e-09
 Percent error, 100*(Cat-|An|)/(Cat+|An|)  =   0.00
                               Iterations  =  15
                                  Total H  = 1.110124e+02
                                  Total O  = 5.550622e+01

----------------------------Distribution of species----------------------------

                                               Log       Log       Log    mole V
   Species          Molality    Activity  Molality  Activity     Gamma   cm3/mol

   H+              1.904e-06   1.341e-06    -5.720    -5.872    -0.152      0.00
   OH-             1.896e-06   1.001e-06    -5.722    -6.000    -0.278     -5.71
   H2O             5.551e+01   9.861e-01     1.744    -0.006     0.000     19.22
Ca            2.722e-01
   Ca+2            2.722e-01   4.603e-02    -0.565    -1.337    -0.772    -17.74
   CaOH+           7.901e-09   5.616e-09    -8.102    -8.251    -0.148     (0)  
Cl            5.444e-01
   Cl-             5.444e-01   2.955e-01    -0.264    -0.529    -0.265     15.97
H(0)          2.247e-25
   H2              1.124e-25   1.356e-25   -24.949   -24.868     0.082     28.56
O(0)          1.226e-18
   O2              6.132e-19   7.401e-19   -18.212   -18.131     0.082     34.91

------------------------------Saturation indices-------------------------------

	Phase               SI   log IAP   log K(400 K,   2 atm)

	H2(g)           -21.82    -24.87   -3.04  H2
	H2O(g)            0.37     -0.01   -0.38  H2O
	O2(g)           -15.04    -18.13   -3.09  O2


Reaction step 5.

Using solution 1.	
Using temperature 1.	
Using pressure 1.	
Using reaction 1.	

Reaction 1.	

	  5.246e-01 moles of the following reaction have been added:

	                 Relative
	Reactant            moles

	CaCl2                1.00000

	                 Relative
	Element             moles
	Ca                   1.00000
	Cl                   2.00000

-----------------------------Solution composition------------------------------

	Elements           Molality       Moles

	Ca                5.246e-01   5.246e-01
	Cl                1.049e+00   1.049e+00

----------------------------Description of solution----------------------------

                                       pH  =   5.860      Charge balance
                                       pe  =   5.609      Adjusted to redox equilibrium
       Specific Conductance (uS/cm, 127 oC) = 223882
                          Density (g/cm3)  =   0.98383
                        Activity of water  =   0.973
                           Ionic strength  =   1.574e+00
                       Mass of water (kg)  =   1.000e+00
                 Total alkalinity (eq/kg)  =  -1.377e-16
                    Total carbon (mol/kg)  =   0.000e+00
                       Total CO2 (mol/kg)  =   0.000e+00
                      Temperature (deg C)  = 127.00
                           Pressure (atm)  =  2.43
                  Electrical balance (eq)  =  -2.928e-16
 Percent error, 100*(Cat-|An|)/(Cat+|An|)  =  -0.00
                               Iterations  =   8
                                  Total H  = 1.110124e+02
                                  Total O  = 5.550622e+01

----------------------------Distribution of species----------------------------

                                               Log       Log       Log    mole V
   Species          Molality    Activity  Molality  Activity     Gamma   cm3/mol

   H+              2.016e-06   1.382e-06    -5.695    -5.860    -0.164      0.00
   OH-             2.004e-06   9.589e-07    -5.698    -6.018    -0.320     -3.62
   H2O             5.551e+01   9.732e-01     1.744    -0.012     0.000     19.22
Ca            5.246e-01
   Ca+2            5.246e-01   9.169e-02    -0.280    -1.038    -0.758    -16.82
   CaOH+           1.215e-08   1.072e-08    -7.915    -7.970    -0.054     (0)  
Cl            1.049e+00
   Cl-             1.049e+00   5.300e-01     0.021    -0.276    -0.297     16.78
H(0)          5.337e-27
   H2              2.669e-27   3.834e-27   -26.574   -26.416     0.157     28.56
O(0)          1.255e-15
   O2              6.276e-16   9.017e-16   -15.202   -15.045     0.157     34.91

------------------------------Saturation indices-------------------------------

	Phase               SI   log IAP   log K(400 K,   2 atm)

	H2(g)           -23.37    -26.42   -3.04  H2
	H2O(g)            0.37     -0.01   -0.38  H2O
	O2(g)           -11.96    -15.04   -3.09  O2


Reaction step 6.

Using solution 1.	
Using temperature 1.	
Using pressure 1.	
Using reaction 1.	

Reaction 1.	

	  1.024e+00 moles of the following reaction have been added:

	                 Relative
	Reactant            moles

	CaCl2                1.00000

	                 Relative
	Element             moles
	Ca                   1.00000
	Cl                   2.00000

-----------------------------Solution composition------------------------------

	Elements           Molality       Moles

	Ca                1.024e+00   1.024e+00
	Cl                2.048e+00   2.048e+00

----------------------------Description of solution----------------------------

                                       pH  =   5.850      Charge balance
                                       pe  =   5.123      Adjusted to redox equilibrium
       Specific Conductance (uS/cm, 127 oC) = 324168
                          Density (g/cm3)  =   1.02421
                        Activity of water  =   0.948
                           Ionic strength  =   3.072e+00
                       Mass of water (kg)  =   1.000e+00
                 Total alkalinity (eq/kg)  =   1.640e-16
                    Total carbon (mol/kg)  =   0.000e+00
                       Total CO2 (mol/kg)  =   0.000e+00
                      Temperature (deg C)  = 127.00
                           Pressure (atm)  =  2.43
                  Electrical balance (eq)  =   1.038e-11
 Percent error, 100*(Cat-|An|)/(Cat+|An|)  =   0.00
                               Iterations  =   8
                                  Total H  = 1.110124e+02
                                  Total O  = 5.550622e+01

----------------------------Distribution of species----------------------------

                                               Log       Log       Log    mole V
   Species          Molality    Activity  Molality  Activity     Gamma   cm3/mol

   H+              2.112e-06   1.414e-06    -5.675    -5.850    -0.174      0.00
   OH-             2.093e-06   9.123e-07    -5.679    -6.040    -0.361     -0.03
   H2O             5.551e+01   9.478e-01     1.744    -0.023     0.000     19.22
Ca            1.024e+00
   Ca+2            1.024e+00   2.513e-01     0.010    -0.600    -0.610    -15.70
   CaOH+           1.831e-08   2.796e-08    -7.737    -7.553     0.184     (0)  
Cl            2.048e+00
   Cl-             2.048e+00   9.924e-01     0.311    -0.003    -0.315     17.86
H(0)          3.716e-26
   H2              1.858e-26   3.769e-26   -25.731   -25.424     0.307     28.56
O(0)          8.723e-18
   O2              4.361e-18   8.848e-18   -17.360   -17.053     0.307     34.91

------------------------------Saturation indices-------------------------------

	Phase               SI   log IAP   log K(400 K,   2 atm)

	H2(g)           -22.38    -25.42   -3.04  H2
	H2O(g)            0.36     -0.02   -0.38  H2O
	O2(g)           -13.96    -17.05   -3.09  O2


Reaction step 7.

Using solution 1.	
Using temperature 1.	
Using pressure 1.	
Using reaction 1.	

Reaction 1.	

	  3.197e+00 moles of the following reaction have been added:

	                 Relative
	Reactant            moles

	CaCl2                1.00000

	                 Relative
	Element             moles
	Ca                   1.00000
	Cl                   2.00000

-----------------------------Solution composition------------------------------

	Elements           Molality       Moles

	Ca                3.197e+00   3.197e+00
	Cl                6.394e+00   6.394e+00

----------------------------Description of solution----------------------------

                                       pH  =   5.853      Charge balance
                                       pe  =   6.240      Adjusted to redox equilibrium
       Specific Conductance (uS/cm, 127 oC) = 1833568
                          Density (g/cm3)  =   1.17315
                        Activity of water  =   0.837
                           Ionic strength  =   9.591e+00
                       Mass of water (kg)  =   1.000e+00
                 Total alkalinity (eq/kg)  =   2.737e-17
                    Total carbon (mol/kg)  =   0.000e+00
                       Total CO2 (mol/kg)  =   0.000e+00
                      Temperature (deg C)  = 127.00
                           Pressure (atm)  =  2.43
                  Electrical balance (eq)  =   2.769e-15
 Percent error, 100*(Cat-|An|)/(Cat+|An|)  =   0.00
                               Iterations  =   7
                                  Total H  = 1.110124e+02
                                  Total O  = 5.550622e+01

----------------------------Distribution of species----------------------------

                                               Log       Log       Log    mole V
   Species          Molality    Activity  Molality  Activity     Gamma   cm3/mol

   H+              2.157e-06   1.403e-06    -5.666    -5.853    -0.187      0.00
   OH-             2.128e-06   8.114e-07    -5.672    -6.091    -0.419     13.36
   H2O             5.551e+01   8.370e-01     1.744    -0.077     0.000     19.22
Ca            3.197e+00
   Ca+2            3.197e+00   6.859e+00     0.505     0.836     0.332    -13.02
   CaOH+           2.905e-08   6.790e-07    -7.537    -6.168     1.369     (0)  
Cl            6.394e+00
   Cl-             6.394e+00   3.396e+00     0.806     0.531    -0.275     20.28
H(0)          4.752e-29
   H2              2.376e-29   2.162e-28   -28.624   -27.665     0.959     28.56
O(0)          4.607e-14
   O2              2.304e-14   2.097e-13   -13.638   -12.679     0.959     34.91

------------------------------Saturation indices-------------------------------

	Phase               SI   log IAP   log K(400 K,   2 atm)

	H2(g)           -24.62    -27.67   -3.04  H2
	H2O(g)            0.30     -0.08   -0.38  H2O
	O2(g)            -9.59    -12.68   -3.09  O2


Reaction step 8.

Using solution 1.	
Using temperature 1.	
Using pressure 1.	
Using reaction 1.	

Reaction 1.	

	  5.010e+00 moles of the following reaction have been added:

	                 Relative
	Reactant            moles

	CaCl2                1.00000

	                 Relative
	Element             moles
	Ca                   1.00000
	Cl                   2.00000

-----------------------------Solution composition------------------------------

	Elements           Molality       Moles

	Ca                5.010e+00   5.010e+00
	Cl                1.002e+01   1.002e+01

----------------------------Description of solution----------------------------

                                       pH  =   5.871      Charge balance
                                       pe  =   5.656      Adjusted to redox equilibrium
       Specific Conductance (uS/cm, 127 oC) = 2905320
                          Density (g/cm3)  =   1.27175
                        Activity of water  =   0.744
                           Ionic strength  =   1.503e+01
                       Mass of water (kg)  =   1.000e+00
                 Total alkalinity (eq/kg)  =   2.970e-16
                    Total carbon (mol/kg)  =   0.000e+00
                       Total CO2 (mol/kg)  =   0.000e+00
                      Temperature (deg C)  = 127.00
                           Pressure (atm)  =  2.43
                  Electrical balance (eq)  =   2.102e-10
 Percent error, 100*(Cat-|An|)/(Cat+|An|)  =   0.00
                               Iterations  =  27
                                  Total H  = 1.110124e+02
                                  Total O  = 5.550622e+01

----------------------------Distribution of species----------------------------

                                               Log       Log       Log    mole V
   Species          Molality    Activity  Molality  Activity     Gamma   cm3/mol

   H+              2.086e-06   1.346e-06    -5.681    -5.871    -0.190      0.00
   OH-             2.058e-06   7.520e-07    -5.687    -6.124    -0.437     23.59
   H2O             5.551e+01   7.445e-01     1.744    -0.128     0.000     19.22
Ca            5.010e+00
   Ca+2            5.010e+00   7.729e+01     0.700     1.888     1.188    -11.43
   CaOH+           2.848e-08   7.095e-06    -7.545    -5.149     2.396     (0)  
Cl            1.002e+01
   Cl-             1.002e+01   6.154e+00     1.001     0.789    -0.212     21.35
H(0)          1.843e-28
   H2              9.214e-29   2.934e-27   -28.036   -26.533     1.503     28.56
O(0)          5.660e-17
   O2              2.830e-17   9.011e-16   -16.548   -15.045     1.503     34.91

------------------------------Saturation indices-------------------------------

	Phase               SI   log IAP   log K(400 K,   2 atm)

	H2(g)           -23.49    -26.53   -3.04  H2
	H2O(g)            0.25     -0.13   -0.38  H2O
	O2(g)           -11.96    -15.05   -3.09  O2


Reaction step 9.

Using solution 1.	
Using temperature 1.	
Using pressure 1.	
Using reaction 1.	

Reaction 1.	

	  6.424e+00 moles of the following reaction have been added:

	                 Relative
	Reactant            moles

	CaCl2                1.00000

	                 Relative
	Element             moles
	Ca                   1.00000
	Cl                   2.00000

-----------------------------Solution composition------------------------------

	Elements           Molality       Moles

	Ca                6.424e+00   6.424e+00
	Cl                1.285e+01   1.285e+01

----------------------------Description of solution----------------------------

                                       pH  =   5.890      Charge balance
                                       pe  =   5.895      Adjusted to redox equilibrium
       Specific Conductance (uS/cm, 127 oC) = 3937672
                          Density (g/cm3)  =   1.33589
                        Activity of water  =   0.672
                           Ionic strength  =   1.927e+01
                       Mass of water (kg)  =   1.000e+00
                 Total alkalinity (eq/kg)  =   1.342e-16
                    Total carbon (mol/kg)  =   0.000e+00
                       Total CO2 (mol/kg)  =   0.000e+00
                      Temperature (deg C)  = 127.00
                           Pressure (atm)  =  2.43
                  Electrical balance (eq)  =   1.528e-10
 Percent error, 100*(Cat-|An|)/(Cat+|An|)  =   0.00
                               Iterations  =   9
                                  Total H  = 1.110124e+02
                                  Total O  = 5.550622e+01

----------------------------Distribution of species----------------------------

                                               Log       Log       Log    mole V
   Species          Molality    Activity  Molality  Activity     Gamma   cm3/mol

   H+              2.006e-06   1.289e-06    -5.698    -5.890    -0.192      0.00
   OH-             1.980e-06   7.088e-07    -5.703    -6.149    -0.446     31.31
   H2O             5.551e+01   6.724e-01     1.744    -0.172     0.000     19.22
Ca            6.424e+00
   Ca+2            6.424e+00   4.747e+02     0.808     2.676     1.869    -10.33
   CaOH+           2.562e-08   4.109e-05    -7.591    -4.386     3.205     (0)  
Cl            1.285e+01
   Cl-             1.285e+01   8.948e+00     1.109     0.952    -0.157     21.93
H(0)          2.110e-29
   H2              1.055e-29   8.922e-28   -28.977   -27.050     1.927     28.56
O(0)          1.879e-16
   O2              9.395e-17   7.947e-15   -16.027   -14.100     1.927     34.91

------------------------------Saturation indices-------------------------------

	Phase               SI   log IAP   log K(400 K,   2 atm)

	H2(g)           -24.01    -27.05   -3.04  H2
	H2O(g)            0.21     -0.17   -0.38  H2O
	O2(g)           -11.01    -14.10   -3.09  O2


------------------
End of simulation.
------------------

-------------------------------------
Reading input data for simulation 11.
-------------------------------------

-----------------------------
End of Run after 0.2 Seconds.
-----------------------------

