WARNING: Database file from DATABASE keyword is used; command line argument ignored.
   Input file: Vm_KHCO3_sol
  Output file: Vm_KHCO3_sol.out
Database file: ../database/phreeqc.dat

------------------
Reading data base.
------------------

	SOLUTION_MASTER_SPECIES
	SOLUTION_SPECIES
	PHASES
	EXCHANGE_MASTER_SPECIES
	EXCHANGE_SPECIES
	SURFACE_MASTER_SPECIES
	SURFACE_SPECIES
	RATES
	END
------------------------------------
Reading input data for simulation 1.
------------------------------------

	DATABASE ../database/phreeqc.dat
	SELECTED_OUTPUT 101
	    file                 Vm_KHCO3_sol_101.sel
	USER_PUNCH 101
	    headings Mu SC
	    start
	10 PUNCH STR_F$(MU, 20, 12)
	20 PUNCH STR_F$(SC, 20, 10)
	    end
	SOLUTION 1
	 pH 7 charge
	END
-------------------------------------------
Beginning of initial solution calculations.
-------------------------------------------

Initial solution 1.	

-----------------------------Solution composition------------------------------

	Elements           Molality       Moles

	Pure water     

----------------------------Description of solution----------------------------

                                       pH  =   6.997      Charge balance
                                       pe  =   4.000    
      Specific Conductance (µS/cm,  25°C)  = 0
                          Density (g/cm³)  =   0.99704
                               Volume (L)  =   1.00297
                        Viscosity (mPa s)  =   0.89002
                        Activity of water  =   1.000
                 Ionic strength (mol/kgw)  =   1.006e-07
                       Mass of water (kg)  =   1.000e+00
                 Total alkalinity (eq/kg)  =   3.040e-17
                         Temperature (°C)  =  25.00
                  Electrical balance (eq)  =  -3.040e-17
 Percent error, 100*(Cat-|An|)/(Cat+|An|)  =  -0.00
                               Iterations  =   2
                                  Total H  = 1.110124e+02
                                  Total O  = 5.550622e+01

----------------------------Distribution of species----------------------------

                                               Log       Log       Log    mole V
   Species          Molality    Activity  Molality  Activity     Gamma   cm³/mol

   OH-             1.006e-07   1.006e-07    -6.997    -6.997    -0.000     -4.14
   H+              1.006e-07   1.006e-07    -6.997    -6.997    -0.000      0.00
   H2O             5.551e+01   1.000e+00     1.744    -0.000     0.000     18.07
H(0)          1.433e-25
   H2              7.166e-26   7.166e-26   -25.145   -25.145     0.000     28.61
O(0)          0.000e+00
   O2              0.000e+00   0.000e+00   -42.090   -42.090     0.000     30.40

------------------------------Saturation indices-------------------------------

  Phase               SI** log IAP   log K(298 K,   1 atm)

  H2(g)           -22.04    -25.14   -3.10  H2
  H2O(g)           -1.50     -0.00    1.50  H2O
  O2(g)           -39.20    -42.09   -2.89  O2

**For a gas, SI = log10(fugacity). Fugacity = pressure * phi / 1 atm.
  For ideal gases, phi = 1.

------------------
End of simulation.
------------------

------------------------------------
Reading input data for simulation 2.
------------------------------------

	USE solution 1
	REACTION_TEMPERATURE
	 5.000000
	REACTION_PRESSURE
	 1.000000
	REACTION
	 KHCO3 1
	0  0.50348 0.30169 0.15050 0.08064 0.05045 0.03015 0.01505
	USER_GRAPH
	 -headings 5.oC
	-axis_titles "KHCO3 / (mol/kg H2O)" "KHCO3 molar volume / (cm3/mol)"
	10 data 0, 32.425, 31.74, 30.92, 31.12, 30.33, 31.85, 32.11
	20 dim d(8)
	30 read d(1), d(2), d(3), d(4), d(5), d(6), d(7), d(8),
	40 if step_no = 1 then put(rho, 10)
	50 if step_no > 1 then Vmol = (1e3 + tot("K") * 100.1211) / (tot("K") * rho) - 1e3 / (tot("K") * get(10))
	60 if step_no = 1 then dif = 0 else dif = Vmol - d(step_no)
	62 if step_no = 1 then goto 90
	70 plot_xy tot("K"), d(step_no), line_w = 0, color = Yellow #aph_x tot("K") # dif, str$(tc), str$(pressure), str$(step_no + get(1))
	80 plot_xy tot("K"), Vmol, symbol = None, color = Yellow #step_no = 264 then put(step_no + get(1), 1)
	 90 end
	END
-----------------------------------------
Beginning of batch-reaction calculations.
-----------------------------------------

Reaction step 1.

Using solution 1.	
Using temperature 1.	
Using pressure 1.	
Using reaction 1.	

Reaction 1.	

	  0.000e+00 moles of the following reaction have been added:

	                 Relative
	Reactant            moles

	KHCO3                1.00000

	                 Relative
	Element             moles
	C                    1.00000
	H                    1.00000
	K                    1.00000
	O                    3.00000

-----------------------------Solution composition------------------------------

	Elements           Molality       Moles

	Pure water     

----------------------------Description of solution----------------------------

                                       pH  =   7.365      Charge balance
                                       pe  =  -0.484      Adjusted to redox equilibrium
      Specific Conductance (µS/cm,   5°C)  = 0
                          Density (g/cm³)  =   0.99996
                               Volume (L)  =   1.00004
                        Viscosity (mPa s)  =   1.51818
                        Activity of water  =   1.000
                 Ionic strength (mol/kgw)  =   4.318e-08
                       Mass of water (kg)  =   1.000e+00
                 Total alkalinity (eq/kg)  =   3.041e-17
                         Temperature (°C)  =   5.00
                  Electrical balance (eq)  =  -3.041e-17
 Percent error, 100*(Cat-|An|)/(Cat+|An|)  =  -0.00
                               Iterations  =   8
                                  Total H  = 1.110124e+02
                                  Total O  = 5.550622e+01

----------------------------Distribution of species----------------------------

                                               Log       Log       Log    mole V
   Species          Molality    Activity  Molality  Activity     Gamma   cm³/mol

   OH-             4.318e-08   4.317e-08    -7.365    -7.365    -0.000     -5.54
   H+              4.318e-08   4.317e-08    -7.365    -7.365    -0.000      0.00
   H2O             5.551e+01   1.000e+00     1.744    -0.000     0.000     18.02
H(0)          3.040e-17
   H2              1.520e-17   1.520e-17   -16.818   -16.818     0.000     28.63
O(0)          0.000e+00
   O2              0.000e+00   0.000e+00   -65.662   -65.662     0.000     28.29

------------------------------Saturation indices-------------------------------

  Phase               SI** log IAP   log K(278 K,   1 atm)

  H2(g)           -13.78    -16.82   -3.03  H2
  H2O(g)           -2.06     -0.00    2.06  H2O
  O2(g)           -62.95    -65.66   -2.71  O2

**For a gas, SI = log10(fugacity). Fugacity = pressure * phi / 1 atm.
  For ideal gases, phi = 1.

Reaction step 2.

Using solution 1.	
Using temperature 1.	
Using pressure 1.	
Using reaction 1.	

Reaction 1.	

	  5.035e-01 moles of the following reaction have been added:

	                 Relative
	Reactant            moles

	KHCO3                1.00000

	                 Relative
	Element             moles
	C                    1.00000
	H                    1.00000
	K                    1.00000
	O                    3.00000

-----------------------------Solution composition------------------------------

	Elements           Molality       Moles

	C                 5.034e-01   5.035e-01
	K                 5.034e-01   5.035e-01

----------------------------Description of solution----------------------------

                                       pH  =   8.209      Charge balance
                                       pe  =  11.443      Adjusted to redox equilibrium
      Specific Conductance (µS/cm,   5°C)  = 27381
                          Density (g/cm³)  =   1.03342
                               Volume (L)  =   1.01644
                        Viscosity (mPa s)  =   1.57312
                        Activity of water  =   0.983
                 Ionic strength (mol/kgw)  =   5.100e-01
                       Mass of water (kg)  =   1.000e+00
                 Total alkalinity (eq/kg)  =   5.034e-01
                       Total CO2 (mol/kg)  =   5.034e-01
                         Temperature (°C)  =   5.00
                  Electrical balance (eq)  =   3.186e-12
 Percent error, 100*(Cat-|An|)/(Cat+|An|)  =   0.00
                               Iterations  =  13
                                  Total H  = 1.115159e+02
                                  Total O  = 5.701666e+01

----------------------------Distribution of species----------------------------

                                               Log       Log       Log    mole V
   Species          Molality    Activity  Molality  Activity     Gamma   cm³/mol

   OH-             4.643e-07   2.966e-07    -6.333    -6.528    -0.195     -4.43
   H+              8.034e-09   6.177e-09    -8.095    -8.209    -0.114      0.00
   H2O             5.551e+01   9.829e-01     1.744    -0.007     0.000     18.02
C(-4)         0.000e+00
   CH4             0.000e+00   0.000e+00  -132.184  -132.133     0.051     33.36
C(4)          5.034e-01
   HCO3-           4.904e-01   3.420e-01    -0.309    -0.466    -0.157     23.91
   CO3-2           6.530e-03   1.545e-03    -2.185    -2.811    -0.626     -4.56
   CO2             6.530e-03   7.056e-03    -2.185    -2.151     0.034     33.37
   (CO2)2          3.870e-07   4.352e-07    -6.412    -6.361     0.051     66.74
H(0)          0.000e+00
   H2              0.000e+00   0.000e+00   -42.412   -42.361     0.051     28.63
K             5.034e-01
   K+              5.034e-01   3.273e-01    -0.298    -0.485    -0.187      8.69
O(0)          4.552e-15
   O2              2.276e-15   2.559e-15   -14.643   -14.592     0.051     28.29

------------------------------Saturation indices-------------------------------

  Phase               SI** log IAP   log K(278 K,   1 atm)

  CH4(g)         -129.58   -132.13   -2.56  CH4
  CO2(g)           -0.96     -2.15   -1.19  CO2
  H2(g)           -39.33    -42.36   -3.03  H2
  H2O(g)           -2.06     -0.01    2.06  H2O
  O2(g)           -11.88    -14.59   -2.71  O2

**For a gas, SI = log10(fugacity). Fugacity = pressure * phi / 1 atm.
  For ideal gases, phi = 1.

Reaction step 3.

Using solution 1.	
Using temperature 1.	
Using pressure 1.	
Using reaction 1.	

Reaction 1.	

	  3.017e-01 moles of the following reaction have been added:

	                 Relative
	Reactant            moles

	KHCO3                1.00000

	                 Relative
	Element             moles
	C                    1.00000
	H                    1.00000
	K                    1.00000
	O                    3.00000

-----------------------------Solution composition------------------------------

	Elements           Molality       Moles

	C                 3.017e-01   3.017e-01
	K                 3.017e-01   3.017e-01

----------------------------Description of solution----------------------------

                                       pH  =   8.250      Charge balance
                                       pe  =  11.407      Adjusted to redox equilibrium
      Specific Conductance (µS/cm,   5°C)  = 17717
                          Density (g/cm³)  =   1.02038
                               Volume (L)  =   1.00963
                        Viscosity (mPa s)  =   1.55208
                        Activity of water  =   0.990
                 Ionic strength (mol/kgw)  =   3.055e-01
                       Mass of water (kg)  =   1.000e+00
                 Total alkalinity (eq/kg)  =   3.017e-01
                       Total CO2 (mol/kg)  =   3.017e-01
                         Temperature (°C)  =   5.00
                  Electrical balance (eq)  =  -4.962e-13
 Percent error, 100*(Cat-|An|)/(Cat+|An|)  =  -0.00
                               Iterations  =  13
                                  Total H  = 1.113141e+02
                                  Total O  = 5.641129e+01

----------------------------Distribution of species----------------------------

                                               Log       Log       Log    mole V
   Species          Molality    Activity  Molality  Activity     Gamma   cm³/mol

   OH-             4.830e-07   3.283e-07    -6.316    -6.484    -0.168     -4.78
   H+              7.145e-09   5.619e-09    -8.146    -8.250    -0.104      0.00
   H2O             5.551e+01   9.897e-01     1.744    -0.004     0.000     18.02
C(-4)         0.000e+00
   CH4             0.000e+00   0.000e+00  -132.466  -132.435     0.031     33.36
C(4)          3.017e-01
   HCO3-           2.941e-01   2.137e-01    -0.532    -0.670    -0.139     23.28
   CO2             3.803e-03   3.984e-03    -2.420    -2.400     0.020     33.37
   CO3-2           3.803e-03   1.061e-03    -2.420    -2.974    -0.554     -5.39
   (CO2)2          1.293e-07   1.387e-07    -6.888    -6.858     0.031     66.74
H(0)          0.000e+00
   H2              0.000e+00   0.000e+00   -42.403   -42.373     0.031     28.63
K             3.017e-01
   K+              3.017e-01   2.072e-01    -0.520    -0.684    -0.163      8.53
O(0)          5.110e-15
   O2              2.555e-15   2.741e-15   -14.593   -14.562     0.031     28.29

------------------------------Saturation indices-------------------------------

  Phase               SI** log IAP   log K(278 K,   1 atm)

  CH4(g)         -129.88   -132.44   -2.56  CH4
  CO2(g)           -1.21     -2.40   -1.19  CO2
  H2(g)           -39.34    -42.37   -3.03  H2
  H2O(g)           -2.06     -0.00    2.06  H2O
  O2(g)           -11.85    -14.56   -2.71  O2

**For a gas, SI = log10(fugacity). Fugacity = pressure * phi / 1 atm.
  For ideal gases, phi = 1.

Reaction step 4.

Using solution 1.	
Using temperature 1.	
Using pressure 1.	
Using reaction 1.	

Reaction 1.	

	  1.505e-01 moles of the following reaction have been added:

	                 Relative
	Reactant            moles

	KHCO3                1.00000

	                 Relative
	Element             moles
	C                    1.00000
	H                    1.00000
	K                    1.00000
	O                    3.00000

-----------------------------Solution composition------------------------------

	Elements           Molality       Moles

	C                 1.505e-01   1.505e-01
	K                 1.505e-01   1.505e-01

----------------------------Description of solution----------------------------

                                       pH  =   8.303      Charge balance
                                       pe  =  11.366      Adjusted to redox equilibrium
      Specific Conductance (µS/cm,   5°C)  = 9407
                          Density (g/cm³)  =   1.01030
                               Volume (L)  =   1.00472
                        Viscosity (mPa s)  =   1.53606
                        Activity of water  =   0.995
                 Ionic strength (mol/kgw)  =   1.523e-01
                       Mass of water (kg)  =   1.000e+00
                 Total alkalinity (eq/kg)  =   1.505e-01
                       Total CO2 (mol/kg)  =   1.505e-01
                         Temperature (°C)  =   5.00
                  Electrical balance (eq)  =  -5.419e-12
 Percent error, 100*(Cat-|An|)/(Cat+|An|)  =  -0.00
                               Iterations  =  13
                                  Total H  = 1.111629e+02
                                  Total O  = 5.595772e+01

----------------------------Distribution of species----------------------------

                                               Log       Log       Log    mole V
   Species          Molality    Activity  Molality  Activity     Gamma   cm³/mol

   OH-             5.061e-07   3.722e-07    -6.296    -6.429    -0.134     -5.07
   H+              6.130e-09   4.983e-09    -8.213    -8.303    -0.090      0.00
   H2O             5.551e+01   9.949e-01     1.744    -0.002     0.000     18.02
C(-4)         0.000e+00
   CH4             0.000e+00   0.000e+00  -132.877  -132.862     0.015     33.36
C(4)          1.505e-01
   HCO3-           1.469e-01   1.129e-01    -0.833    -0.947    -0.114     22.73
   CO2             1.813e-03   1.856e-03    -2.742    -2.732     0.010     33.37
   CO3-2           1.813e-03   6.319e-04    -2.742    -3.199    -0.458     -6.19
   (CO2)2          2.906e-08   3.010e-08    -7.537    -7.521     0.015     66.74
H(0)          0.000e+00
   H2              0.000e+00   0.000e+00   -42.410   -42.395     0.015     28.63
K             1.505e-01
   K+              1.505e-01   1.112e-01    -0.822    -0.954    -0.131      8.38
O(0)          5.932e-15
   O2              2.966e-15   3.072e-15   -14.528   -14.513     0.015     28.29

------------------------------Saturation indices-------------------------------

  Phase               SI** log IAP   log K(278 K,   1 atm)

  CH4(g)         -130.30   -132.86   -2.56  CH4
  CO2(g)           -1.54     -2.73   -1.19  CO2
  H2(g)           -39.36    -42.40   -3.03  H2
  H2O(g)           -2.06     -0.00    2.06  H2O
  O2(g)           -11.80    -14.51   -2.71  O2

**For a gas, SI = log10(fugacity). Fugacity = pressure * phi / 1 atm.
  For ideal gases, phi = 1.

Reaction step 5.

Using solution 1.	
Using temperature 1.	
Using pressure 1.	
Using reaction 1.	

Reaction 1.	

	  8.064e-02 moles of the following reaction have been added:

	                 Relative
	Reactant            moles

	KHCO3                1.00000

	                 Relative
	Element             moles
	C                    1.00000
	H                    1.00000
	K                    1.00000
	O                    3.00000

-----------------------------Solution composition------------------------------

	Elements           Molality       Moles

	C                 8.064e-02   8.064e-02
	K                 8.064e-02   8.064e-02

----------------------------Description of solution----------------------------

                                       pH  =   8.345      Charge balance
                                       pe  =  -2.365      Adjusted to redox equilibrium
      Specific Conductance (µS/cm,   5°C)  = 5212
                          Density (g/cm³)  =   1.00555
                               Volume (L)  =   1.00251
                        Viscosity (mPa s)  =   1.52843
                        Activity of water  =   0.997
                 Ionic strength (mol/kgw)  =   8.157e-02
                       Mass of water (kg)  =   1.000e+00
                 Total alkalinity (eq/kg)  =   8.064e-02
                       Total CO2 (mol/kg)  =   8.064e-02
                         Temperature (°C)  =   5.00
                  Electrical balance (eq)  =  -3.099e-12
 Percent error, 100*(Cat-|An|)/(Cat+|An|)  =  -0.00
                               Iterations  =  11
                                  Total H  = 1.110931e+02
                                  Total O  = 5.574814e+01

----------------------------Distribution of species----------------------------

                                               Log       Log       Log    mole V
   Species          Molality    Activity  Molality  Activity     Gamma   cm³/mol

   OH-             5.259e-07   4.115e-07    -6.279    -6.386    -0.107     -5.23
   H+              5.391e-09   4.517e-09    -8.268    -8.345    -0.077      0.00
   H2O             5.551e+01   9.973e-01     1.744    -0.001     0.000     18.02
C(-4)         2.200e-24
   CH4             2.200e-24   2.242e-24   -23.658   -23.649     0.008     33.36
C(4)          8.064e-02
   HCO3-           7.878e-02   6.345e-02    -1.104    -1.198    -0.094     22.43
   CO2             9.319e-04   9.435e-04    -3.031    -3.025     0.005     33.37
   CO3-2           9.313e-04   3.919e-04    -3.031    -3.407    -0.376     -6.68
   (CO2)2          7.637e-09   7.782e-09    -8.117    -8.109     0.008     66.74
H(0)          1.882e-15
   H2              9.410e-16   9.589e-16   -15.026   -15.018     0.008     28.63
K             8.064e-02
   K+              8.064e-02   6.328e-02    -1.093    -1.199    -0.105      8.30
O(0)          0.000e+00
   O2              0.000e+00   0.000e+00   -69.273   -69.264     0.008     28.29

------------------------------Saturation indices-------------------------------

  Phase               SI** log IAP   log K(278 K,   1 atm)

  CH4(g)          -21.09    -23.65   -2.56  CH4
  CO2(g)           -1.83     -3.03   -1.19  CO2
  H2(g)           -11.98    -15.02   -3.03  H2
  H2O(g)           -2.06     -0.00    2.06  H2O
  O2(g)           -66.55    -69.26   -2.71  O2

**For a gas, SI = log10(fugacity). Fugacity = pressure * phi / 1 atm.
  For ideal gases, phi = 1.

Reaction step 6.

Using solution 1.	
Using temperature 1.	
Using pressure 1.	
Using reaction 1.	

Reaction 1.	

	  5.045e-02 moles of the following reaction have been added:

	                 Relative
	Reactant            moles

	KHCO3                1.00000

	                 Relative
	Element             moles
	C                    1.00000
	H                    1.00000
	K                    1.00000
	O                    3.00000

-----------------------------Solution composition------------------------------

	Elements           Molality       Moles

	C                 5.045e-02   5.045e-02
	K                 5.045e-02   5.045e-02

----------------------------Description of solution----------------------------

                                       pH  =   8.374      Charge balance
                                       pe  =  11.181      Adjusted to redox equilibrium
      Specific Conductance (µS/cm,   5°C)  = 3319
                          Density (g/cm³)  =   1.00347
                               Volume (L)  =   1.00158
                        Viscosity (mPa s)  =   1.52501
                        Activity of water  =   0.998
                 Ionic strength (mol/kgw)  =   5.101e-02
                       Mass of water (kg)  =   1.000e+00
                 Total alkalinity (eq/kg)  =   5.045e-02
                       Total CO2 (mol/kg)  =   5.045e-02
                         Temperature (°C)  =   5.00
                  Electrical balance (eq)  =  -6.969e-12
 Percent error, 100*(Cat-|An|)/(Cat+|An|)  =  -0.00
                               Iterations  =  13
                                  Total H  = 1.110629e+02
                                  Total O  = 5.565757e+01

----------------------------Distribution of species----------------------------

                                               Log       Log       Log    mole V
   Species          Molality    Activity  Molality  Activity     Gamma   cm³/mol

   OH-             5.401e-07   4.402e-07    -6.268    -6.356    -0.089     -5.31
   H+              4.934e-09   4.227e-09    -8.307    -8.374    -0.067      0.00
   H2O             5.551e+01   9.983e-01     1.744    -0.001     0.000     18.02
C(-4)         0.000e+00
   CH4             0.000e+00   0.000e+00  -132.467  -132.462     0.005     33.36
C(4)          5.045e-02
   HCO3-           4.932e-02   4.103e-02    -1.307    -1.387    -0.080     22.28
   CO2             5.659e-04   5.703e-04    -3.247    -3.244     0.003     33.37
   CO3-2           5.654e-04   2.708e-04    -3.248    -3.567    -0.320     -6.96
   (CO2)2          2.810e-09   2.844e-09    -8.551    -8.546     0.005     66.74
H(0)          0.000e+00
   H2              0.000e+00   0.000e+00   -42.172   -42.166     0.005     28.63
K             5.045e-02
   K+              5.045e-02   4.119e-02    -1.297    -1.385    -0.088      8.25
O(0)          2.132e-15
   O2              1.066e-15   1.078e-15   -14.972   -14.967     0.005     28.29

------------------------------Saturation indices-------------------------------

  Phase               SI** log IAP   log K(278 K,   1 atm)

  CH4(g)         -129.90   -132.46   -2.56  CH4
  CO2(g)           -2.05     -3.24   -1.19  CO2
  H2(g)           -39.13    -42.17   -3.03  H2
  H2O(g)           -2.06     -0.00    2.06  H2O
  O2(g)           -12.25    -14.97   -2.71  O2

**For a gas, SI = log10(fugacity). Fugacity = pressure * phi / 1 atm.
  For ideal gases, phi = 1.

Reaction step 7.

Using solution 1.	
Using temperature 1.	
Using pressure 1.	
Using reaction 1.	

Reaction 1.	

	  3.015e-02 moles of the following reaction have been added:

	                 Relative
	Reactant            moles

	KHCO3                1.00000

	                 Relative
	Element             moles
	C                    1.00000
	H                    1.00000
	K                    1.00000
	O                    3.00000

-----------------------------Solution composition------------------------------

	Elements           Molality       Moles

	C                 3.015e-02   3.015e-02
	K                 3.015e-02   3.015e-02

----------------------------Description of solution----------------------------

                                       pH  =   8.402      Charge balance
                                       pe  =  -2.823      Adjusted to redox equilibrium
      Specific Conductance (µS/cm,   5°C)  = 2014
                          Density (g/cm³)  =   1.00206
                               Volume (L)  =   1.00095
                        Viscosity (mPa s)  =   1.52262
                        Activity of water  =   0.999
                 Ionic strength (mol/kgw)  =   3.048e-02
                       Mass of water (kg)  =   1.000e+00
                 Total alkalinity (eq/kg)  =   3.015e-02
                       Total CO2 (mol/kg)  =   3.015e-02
                         Temperature (°C)  =   5.00
                  Electrical balance (eq)  =   3.316e-15
 Percent error, 100*(Cat-|An|)/(Cat+|An|)  =   0.00
                               Iterations  =  12
                                  Total H  = 1.110426e+02
                                  Total O  = 5.559667e+01

----------------------------Distribution of species----------------------------

                                               Log       Log       Log    mole V
   Species          Molality    Activity  Molality  Activity     Gamma   cm³/mol

   OH-             5.548e-07   4.700e-07    -6.256    -6.328    -0.072     -5.37
   H+              4.518e-09   3.961e-09    -8.345    -8.402    -0.057      0.00
   H2O             5.551e+01   9.990e-01     1.744    -0.000     0.000     18.02
C(-4)         1.249e-21
   CH4             1.249e-21   1.258e-21   -20.903   -20.900     0.003     33.36
C(4)          3.015e-02
   HCO3-           2.949e-02   2.533e-02    -1.530    -1.596    -0.066     22.17
   CO2             3.283e-04   3.298e-04    -3.484    -3.482     0.002     33.37
   CO3-2           3.278e-04   1.784e-04    -3.484    -3.749    -0.264     -7.18
   (CO2)2          9.444e-10   9.510e-10    -9.025    -9.022     0.003     66.74
H(0)          1.206e-14
   H2              6.032e-15   6.074e-15   -14.220   -14.217     0.003     28.63
K             3.015e-02
   K+              3.015e-02   2.557e-02    -1.521    -1.592    -0.072      8.21
O(0)          0.000e+00
   O2              0.000e+00   0.000e+00   -70.870   -70.866     0.003     28.29

------------------------------Saturation indices-------------------------------

  Phase               SI** log IAP   log K(278 K,   1 atm)

  CH4(g)          -18.34    -20.90   -2.56  CH4
  CO2(g)           -2.29     -3.48   -1.19  CO2
  H2(g)           -11.18    -14.22   -3.03  H2
  H2O(g)           -2.06     -0.00    2.06  H2O
  O2(g)           -68.15    -70.87   -2.71  O2

**For a gas, SI = log10(fugacity). Fugacity = pressure * phi / 1 atm.
  For ideal gases, phi = 1.

Reaction step 8.

Using solution 1.	
Using temperature 1.	
Using pressure 1.	
Using reaction 1.	

Reaction 1.	

	  1.505e-02 moles of the following reaction have been added:

	                 Relative
	Reactant            moles

	KHCO3                1.00000

	                 Relative
	Element             moles
	C                    1.00000
	H                    1.00000
	K                    1.00000
	O                    3.00000

-----------------------------Solution composition------------------------------

	Elements           Molality       Moles

	C                 1.505e-02   1.505e-02
	K                 1.505e-02   1.505e-02

----------------------------Description of solution----------------------------

                                       pH  =   8.434      Charge balance
                                       pe  =  -2.559      Adjusted to redox equilibrium
      Specific Conductance (µS/cm,   5°C)  = 1022
                          Density (g/cm³)  =   1.00102
                               Volume (L)  =   1.00049
                        Viscosity (mPa s)  =   1.52072
                        Activity of water  =   0.999
                 Ionic strength (mol/kgw)  =   1.521e-02
                       Mass of water (kg)  =   1.000e+00
                 Total alkalinity (eq/kg)  =   1.505e-02
                       Total CO2 (mol/kg)  =   1.505e-02
                         Temperature (°C)  =   5.00
                  Electrical balance (eq)  =  -3.915e-12
 Percent error, 100*(Cat-|An|)/(Cat+|An|)  =  -0.00
                               Iterations  =  11
                                  Total H  = 1.110275e+02
                                  Total O  = 5.555137e+01

----------------------------Distribution of species----------------------------

                                               Log       Log       Log    mole V
   Species          Molality    Activity  Molality  Activity     Gamma   cm³/mol

   OH-             5.723e-07   5.061e-07    -6.242    -6.296    -0.053     -5.43
   H+              4.081e-09   3.681e-09    -8.389    -8.434    -0.045      0.00
   H2O             5.551e+01   9.995e-01     1.744    -0.000     0.000     18.02
C(-4)         2.611e-24
   CH4             2.611e-24   2.620e-24   -23.583   -23.582     0.002     33.36
C(4)          1.505e-02
   HCO3-           1.473e-02   1.313e-02    -1.832    -1.882    -0.050     22.06
   CO2             1.584e-04   1.588e-04    -3.800    -3.799     0.001     33.37
   CO3-2           1.578e-04   9.950e-05    -3.802    -4.002    -0.200     -7.41
   (CO2)2          2.196e-10   2.203e-10    -9.658    -9.657     0.002     66.74
H(0)          3.106e-15
   H2              1.553e-15   1.558e-15   -14.809   -14.807     0.002     28.63
K             1.505e-02
   K+              1.505e-02   1.331e-02    -1.822    -1.876    -0.053      8.17
O(0)          0.000e+00
   O2              0.000e+00   0.000e+00   -69.686   -69.684     0.002     28.29

------------------------------Saturation indices-------------------------------

  Phase               SI** log IAP   log K(278 K,   1 atm)

  CH4(g)          -21.02    -23.58   -2.56  CH4
  CO2(g)           -2.61     -3.80   -1.19  CO2
  H2(g)           -11.77    -14.81   -3.03  H2
  H2O(g)           -2.06     -0.00    2.06  H2O
  O2(g)           -66.97    -69.68   -2.71  O2

**For a gas, SI = log10(fugacity). Fugacity = pressure * phi / 1 atm.
  For ideal gases, phi = 1.

------------------
End of simulation.
------------------

------------------------------------
Reading input data for simulation 3.
------------------------------------

	USE solution 1
	REACTION_TEMPERATURE
	 10.000000
	REACTION_PRESSURE
	 1.000000
	REACTION
	 KHCO3 1
	0  0.50348 0.30169 0.15050 0.08064 0.05045 0.03015 0.01505
	USER_GRAPH
	 -headings 10.oC
	10 data 0, 33.33, 32.71, 31.91, 32.08, 31.34, 32.24, 32.77
	20 dim d(8)
	30 read d(1), d(2), d(3), d(4), d(5), d(6), d(7), d(8),
	40 if step_no = 1 then put(rho, 10)
	50 if step_no > 1 then Vmol = (1e3 + tot("K") * 100.1211) / (tot("K") * rho) - 1e3 / (tot("K") * get(10))
	60 if step_no = 1 then dif = 0 else dif = Vmol - d(step_no)
	62 if step_no = 1 then goto 90
	70 plot_xy tot("K"), d(step_no), line_w = 0, color = Red #aph_x tot("K") # dif, str$(tc), str$(pressure), str$(step_no + get(1))
	80 plot_xy tot("K"), Vmol, symbol = None, color = Red #step_no = 264 then put(step_no + get(1), 1)
	 90 end
	END
-----------------------------------------
Beginning of batch-reaction calculations.
-----------------------------------------

Reaction step 1.

Using solution 1.	
Using temperature 1.	
Using pressure 1.	
Using reaction 1.	

Reaction 1.	

	  0.000e+00 moles of the following reaction have been added:

	                 Relative
	Reactant            moles

	KHCO3                1.00000

	                 Relative
	Element             moles
	C                    1.00000
	H                    1.00000
	K                    1.00000
	O                    3.00000

-----------------------------Solution composition------------------------------

	Elements           Molality       Moles

	Pure water     

----------------------------Description of solution----------------------------

                                       pH  =   7.266      Charge balance
                                       pe  =  -0.397      Adjusted to redox equilibrium
      Specific Conductance (µS/cm,  10°C)  = 0
                          Density (g/cm³)  =   0.99970
                               Volume (L)  =   1.00030
                        Viscosity (mPa s)  =   1.30591
                        Activity of water  =   1.000
                 Ionic strength (mol/kgw)  =   5.425e-08
                       Mass of water (kg)  =   1.000e+00
                 Total alkalinity (eq/kg)  =   3.040e-17
                         Temperature (°C)  =  10.00
                  Electrical balance (eq)  =  -3.040e-17
 Percent error, 100*(Cat-|An|)/(Cat+|An|)  =  -0.00
                               Iterations  =   8
                                  Total H  = 1.110124e+02
                                  Total O  = 5.550622e+01

----------------------------Distribution of species----------------------------

                                               Log       Log       Log    mole V
   Species          Molality    Activity  Molality  Activity     Gamma   cm³/mol

   OH-             5.425e-08   5.424e-08    -7.266    -7.266    -0.000     -5.04
   H+              5.425e-08   5.424e-08    -7.266    -7.266    -0.000      0.00
   H2O             5.551e+01   1.000e+00     1.744    -0.000     0.000     18.02
H(0)          3.040e-17
   H2              1.520e-17   1.520e-17   -16.818   -16.818     0.000     28.63
O(0)          0.000e+00
   O2              0.000e+00   0.000e+00   -63.841   -63.841     0.000     28.95

------------------------------Saturation indices-------------------------------

  Phase               SI** log IAP   log K(283 K,   1 atm)

  H2(g)           -13.76    -16.82   -3.05  H2
  H2O(g)           -1.91     -0.00    1.91  H2O
  O2(g)           -61.08    -63.84   -2.77  O2

**For a gas, SI = log10(fugacity). Fugacity = pressure * phi / 1 atm.
  For ideal gases, phi = 1.

Reaction step 2.

Using solution 1.	
Using temperature 1.	
Using pressure 1.	
Using reaction 1.	

Reaction 1.	

	  5.035e-01 moles of the following reaction have been added:

	                 Relative
	Reactant            moles

	KHCO3                1.00000

	                 Relative
	Element             moles
	C                    1.00000
	H                    1.00000
	K                    1.00000
	O                    3.00000

-----------------------------Solution composition------------------------------

	Elements           Molality       Moles

	C                 5.034e-01   5.035e-01
	K                 5.034e-01   5.035e-01

----------------------------Description of solution----------------------------

                                       pH  =   8.148      Charge balance
                                       pe  =  11.560      Adjusted to redox equilibrium
      Specific Conductance (µS/cm,  10°C)  = 31304
                          Density (g/cm³)  =   1.03260
                               Volume (L)  =   1.01724
                        Viscosity (mPa s)  =   1.36931
                        Activity of water  =   0.983
                 Ionic strength (mol/kgw)  =   5.101e-01
                       Mass of water (kg)  =   1.000e+00
                 Total alkalinity (eq/kg)  =   5.034e-01
                       Total CO2 (mol/kg)  =   5.034e-01
                         Temperature (°C)  =  10.00
                  Electrical balance (eq)  =  -1.491e-09
 Percent error, 100*(Cat-|An|)/(Cat+|An|)  =  -0.00
                               Iterations  =  12
                                  Total H  = 1.115159e+02
                                  Total O  = 5.701666e+01

----------------------------Distribution of species----------------------------

                                               Log       Log       Log    mole V
   Species          Molality    Activity  Molality  Activity     Gamma   cm³/mol

   OH-             6.376e-07   4.061e-07    -6.195    -6.391    -0.196     -3.90
   H+              9.274e-09   7.119e-09    -8.033    -8.148    -0.115      0.00
   H2O             5.551e+01   9.829e-01     1.744    -0.007     0.000     18.02
C(-4)         0.000e+00
   CH4             0.000e+00   0.000e+00  -133.347  -133.296     0.051     33.98
C(4)          5.034e-01
   HCO3-           4.901e-01   3.411e-01    -0.310    -0.467    -0.157     24.70
   CO3-2           6.644e-03   1.558e-03    -2.178    -2.807    -0.630     -3.27
   CO2             6.644e-03   7.180e-03    -2.178    -2.144     0.034     33.66
   (CO2)2          4.901e-07   5.512e-07    -6.310    -6.259     0.051     67.32
H(0)          0.000e+00
   H2              0.000e+00   0.000e+00   -42.547   -42.496     0.051     28.63
K             5.034e-01
   K+              5.034e-01   3.264e-01    -0.298    -0.486    -0.188      8.97
O(0)          5.618e-13
   O2              2.809e-13   3.159e-13   -12.551   -12.500     0.051     28.95

------------------------------Saturation indices-------------------------------

  Phase               SI** log IAP   log K(283 K,   1 atm)

  CH4(g)         -130.66   -133.30   -2.63  CH4
  CO2(g)           -0.87     -2.14   -1.27  CO2
  H2(g)           -39.44    -42.50   -3.05  H2
  H2O(g)           -1.92     -0.01    1.91  H2O
  O2(g)            -9.73    -12.50   -2.77  O2

**For a gas, SI = log10(fugacity). Fugacity = pressure * phi / 1 atm.
  For ideal gases, phi = 1.

Reaction step 3.

Using solution 1.	
Using temperature 1.	
Using pressure 1.	
Using reaction 1.	

Reaction 1.	

	  3.017e-01 moles of the following reaction have been added:

	                 Relative
	Reactant            moles

	KHCO3                1.00000

	                 Relative
	Element             moles
	C                    1.00000
	H                    1.00000
	K                    1.00000
	O                    3.00000

-----------------------------Solution composition------------------------------

	Elements           Molality       Moles

	C                 3.017e-01   3.017e-01
	K                 3.017e-01   3.017e-01

----------------------------Description of solution----------------------------

                                       pH  =   8.189      Charge balance
                                       pe  =  11.406      Adjusted to redox equilibrium
      Specific Conductance (µS/cm,  10°C)  = 20297
                          Density (g/cm³)  =   1.01977
                               Volume (L)  =   1.01023
                        Viscosity (mPa s)  =   1.34504
                        Activity of water  =   0.990
                 Ionic strength (mol/kgw)  =   3.055e-01
                       Mass of water (kg)  =   1.000e+00
                 Total alkalinity (eq/kg)  =   3.017e-01
                       Total CO2 (mol/kg)  =   3.017e-01
                         Temperature (°C)  =  10.00
                  Electrical balance (eq)  =   4.043e-15
 Percent error, 100*(Cat-|An|)/(Cat+|An|)  =   0.00
                               Iterations  =  13
                                  Total H  = 1.113141e+02
                                  Total O  = 5.641129e+01

----------------------------Distribution of species----------------------------

                                               Log       Log       Log    mole V
   Species          Molality    Activity  Molality  Activity     Gamma   cm³/mol

   OH-             6.633e-07   4.497e-07    -6.178    -6.347    -0.169     -4.25
   H+              8.243e-09   6.474e-09    -8.084    -8.189    -0.105      0.00
   H2O             5.551e+01   9.897e-01     1.744    -0.004     0.000     18.02
C(-4)         0.000e+00
   CH4             0.000e+00   0.000e+00  -132.680  -132.650     0.031     33.98
C(4)          3.017e-01
   HCO3-           2.939e-01   2.132e-01    -0.532    -0.671    -0.139     24.11
   CO2             3.869e-03   4.053e-03    -2.412    -2.392     0.020     33.66
   CO3-2           3.869e-03   1.071e-03    -2.412    -2.970    -0.558     -4.08
   (CO2)2          1.637e-07   1.757e-07    -6.786    -6.755     0.031     67.32
H(0)          0.000e+00
   H2              0.000e+00   0.000e+00   -42.301   -42.271     0.031     28.63
K             3.017e-01
   K+              3.017e-01   2.067e-01    -0.520    -0.685    -0.164      8.81
O(0)          2.117e-13
   O2              1.058e-13   1.136e-13   -12.975   -12.945     0.031     28.95

------------------------------Saturation indices-------------------------------

  Phase               SI** log IAP   log K(283 K,   1 atm)

  CH4(g)         -130.02   -132.65   -2.63  CH4
  CO2(g)           -1.12     -2.39   -1.27  CO2
  H2(g)           -39.22    -42.27   -3.05  H2
  H2O(g)           -1.92     -0.00    1.91  H2O
  O2(g)           -10.18    -12.94   -2.77  O2

**For a gas, SI = log10(fugacity). Fugacity = pressure * phi / 1 atm.
  For ideal gases, phi = 1.

Reaction step 4.

Using solution 1.	
Using temperature 1.	
Using pressure 1.	
Using reaction 1.	

Reaction 1.	

	  1.505e-01 moles of the following reaction have been added:

	                 Relative
	Reactant            moles

	KHCO3                1.00000

	                 Relative
	Element             moles
	C                    1.00000
	H                    1.00000
	K                    1.00000
	O                    3.00000

-----------------------------Solution composition------------------------------

	Elements           Molality       Moles

	C                 1.505e-01   1.505e-01
	K                 1.505e-01   1.505e-01

----------------------------Description of solution----------------------------

                                       pH  =   8.241      Charge balance
                                       pe  =  11.345      Adjusted to redox equilibrium
      Specific Conductance (µS/cm,  10°C)  = 10791
                          Density (g/cm³)  =   1.00986
                               Volume (L)  =   1.00516
                        Viscosity (mPa s)  =   1.32640
                        Activity of water  =   0.995
                 Ionic strength (mol/kgw)  =   1.523e-01
                       Mass of water (kg)  =   1.000e+00
                 Total alkalinity (eq/kg)  =   1.505e-01
                       Total CO2 (mol/kg)  =   1.505e-01
                         Temperature (°C)  =  10.00
                  Electrical balance (eq)  =   7.441e-15
 Percent error, 100*(Cat-|An|)/(Cat+|An|)  =   0.00
                               Iterations  =  13
                                  Total H  = 1.111629e+02
                                  Total O  = 5.595772e+01

----------------------------Distribution of species----------------------------

                                               Log       Log       Log    mole V
   Species          Molality    Activity  Molality  Activity     Gamma   cm³/mol

   OH-             6.952e-07   5.101e-07    -6.158    -6.292    -0.134     -4.55
   H+              7.067e-09   5.737e-09    -8.151    -8.241    -0.091      0.00
   H2O             5.551e+01   9.949e-01     1.744    -0.002     0.000     18.02
C(-4)         0.000e+00
   CH4             0.000e+00   0.000e+00  -132.938  -132.922     0.015     33.98
C(4)          1.505e-01
   HCO3-           1.468e-01   1.126e-01    -0.833    -0.948    -0.115     23.59
   CO2             1.844e-03   1.887e-03    -2.734    -2.724     0.010     33.66
   CO3-2           1.844e-03   6.383e-04    -2.734    -3.195    -0.461     -4.87
   (CO2)2          3.678e-08   3.809e-08    -7.434    -7.419     0.015     67.32
H(0)          0.000e+00
   H2              0.000e+00   0.000e+00   -42.270   -42.255     0.015     28.63
K             1.505e-01
   K+              1.505e-01   1.110e-01    -0.822    -0.955    -0.132      8.67
O(0)          2.059e-13
   O2              1.030e-13   1.067e-13   -12.987   -12.972     0.015     28.95

------------------------------Saturation indices-------------------------------

  Phase               SI** log IAP   log K(283 K,   1 atm)

  CH4(g)         -130.29   -132.92   -2.63  CH4
  CO2(g)           -1.45     -2.72   -1.27  CO2
  H2(g)           -39.20    -42.25   -3.05  H2
  H2O(g)           -1.91     -0.00    1.91  H2O
  O2(g)           -10.21    -12.97   -2.77  O2

**For a gas, SI = log10(fugacity). Fugacity = pressure * phi / 1 atm.
  For ideal gases, phi = 1.

Reaction step 5.

Using solution 1.	
Using temperature 1.	
Using pressure 1.	
Using reaction 1.	

Reaction 1.	

	  8.064e-02 moles of the following reaction have been added:

	                 Relative
	Reactant            moles

	KHCO3                1.00000

	                 Relative
	Element             moles
	C                    1.00000
	H                    1.00000
	K                    1.00000
	O                    3.00000

-----------------------------Solution composition------------------------------

	Elements           Molality       Moles

	C                 8.064e-02   8.064e-02
	K                 8.064e-02   8.064e-02

----------------------------Description of solution----------------------------

                                       pH  =   8.284      Charge balance
                                       pe  =  -2.316      Adjusted to redox equilibrium
      Specific Conductance (µS/cm,  10°C)  = 5982
                          Density (g/cm³)  =   1.00519
                               Volume (L)  =   1.00287
                        Viscosity (mPa s)  =   1.31751
                        Activity of water  =   0.997
                 Ionic strength (mol/kgw)  =   8.159e-02
                       Mass of water (kg)  =   1.000e+00
                 Total alkalinity (eq/kg)  =   8.064e-02
                       Total CO2 (mol/kg)  =   8.064e-02
                         Temperature (°C)  =  10.00
                  Electrical balance (eq)  =   2.110e-13
 Percent error, 100*(Cat-|An|)/(Cat+|An|)  =   0.00
                               Iterations  =  11
                                  Total H  = 1.110931e+02
                                  Total O  = 5.574814e+01

----------------------------Distribution of species----------------------------

                                               Log       Log       Log    mole V
   Species          Molality    Activity  Molality  Activity     Gamma   cm³/mol

   OH-             7.224e-07   5.643e-07    -6.141    -6.248    -0.107     -4.72
   H+              6.212e-09   5.198e-09    -8.207    -8.284    -0.077      0.00
   H2O             5.551e+01   9.973e-01     1.744    -0.001     0.000     18.02
C(-4)         5.298e-25
   CH4             5.298e-25   5.399e-25   -24.276   -24.268     0.008     33.98
C(4)          8.064e-02
   HCO3-           7.874e-02   6.333e-02    -1.104    -1.198    -0.095     23.31
   CO2             9.476e-04   9.594e-04    -3.023    -3.018     0.005     33.66
   CO3-2           9.469e-04   3.962e-04    -3.024    -3.402    -0.378     -5.37
   (CO2)2          9.660e-09   9.844e-09    -8.015    -8.007     0.008     67.32
H(0)          1.887e-15
   H2              9.433e-16   9.612e-16   -15.025   -15.017     0.008     28.63
K             8.064e-02
   K+              8.064e-02   6.317e-02    -1.093    -1.199    -0.106      8.59
O(0)          0.000e+00
   O2              0.000e+00   0.000e+00   -67.453   -67.445     0.008     28.95

------------------------------Saturation indices-------------------------------

  Phase               SI** log IAP   log K(283 K,   1 atm)

  CH4(g)          -21.64    -24.27   -2.63  CH4
  CO2(g)           -1.75     -3.02   -1.27  CO2
  H2(g)           -11.96    -15.02   -3.05  H2
  H2O(g)           -1.91     -0.00    1.91  H2O
  O2(g)           -64.68    -67.45   -2.77  O2

**For a gas, SI = log10(fugacity). Fugacity = pressure * phi / 1 atm.
  For ideal gases, phi = 1.

Reaction step 6.

Using solution 1.	
Using temperature 1.	
Using pressure 1.	
Using reaction 1.	

Reaction 1.	

	  5.045e-02 moles of the following reaction have been added:

	                 Relative
	Reactant            moles

	KHCO3                1.00000

	                 Relative
	Element             moles
	C                    1.00000
	H                    1.00000
	K                    1.00000
	O                    3.00000

-----------------------------Solution composition------------------------------

	Elements           Molality       Moles

	C                 5.045e-02   5.045e-02
	K                 5.045e-02   5.045e-02

----------------------------Description of solution----------------------------

                                       pH  =   8.313      Charge balance
                                       pe  =  11.122      Adjusted to redox equilibrium
      Specific Conductance (µS/cm,  10°C)  = 3811
                          Density (g/cm³)  =   1.00314
                               Volume (L)  =   1.00190
                        Viscosity (mPa s)  =   1.31355
                        Activity of water  =   0.998
                 Ionic strength (mol/kgw)  =   5.102e-02
                       Mass of water (kg)  =   1.000e+00
                 Total alkalinity (eq/kg)  =   5.045e-02
                       Total CO2 (mol/kg)  =   5.045e-02
                         Temperature (°C)  =  10.00
                  Electrical balance (eq)  =   1.917e-13
 Percent error, 100*(Cat-|An|)/(Cat+|An|)  =   0.00
                               Iterations  =  12
                                  Total H  = 1.110629e+02
                                  Total O  = 5.565757e+01

----------------------------Distribution of species----------------------------

                                               Log       Log       Log    mole V
   Species          Molality    Activity  Molality  Activity     Gamma   cm³/mol

   OH-             7.419e-07   6.039e-07    -6.130    -6.219    -0.089     -4.80
   H+              5.682e-09   4.863e-09    -8.245    -8.313    -0.068      0.00
   H2O             5.551e+01   9.983e-01     1.744    -0.001     0.000     18.02
C(-4)         0.000e+00
   CH4             0.000e+00   0.000e+00  -132.227  -132.222     0.005     33.98
C(4)          5.045e-02
   HCO3-           4.930e-02   4.096e-02    -1.307    -1.388    -0.080     23.17
   CO2             5.754e-04   5.799e-04    -3.240    -3.237     0.003     33.66
   CO3-2           5.747e-04   2.739e-04    -3.241    -3.562    -0.322     -5.64
   (CO2)2          3.554e-09   3.596e-09    -8.449    -8.444     0.005     67.32
H(0)          0.000e+00
   H2              0.000e+00   0.000e+00   -41.956   -41.951     0.005     28.63
K             5.045e-02
   K+              5.045e-02   4.114e-02    -1.297    -1.386    -0.089      8.54
O(0)          5.237e-14
   O2              2.618e-14   2.649e-14   -13.582   -13.577     0.005     28.95

------------------------------Saturation indices-------------------------------

  Phase               SI** log IAP   log K(283 K,   1 atm)

  CH4(g)         -129.59   -132.22   -2.63  CH4
  CO2(g)           -1.97     -3.24   -1.27  CO2
  H2(g)           -38.90    -41.95   -3.05  H2
  H2O(g)           -1.91     -0.00    1.91  H2O
  O2(g)           -10.81    -13.58   -2.77  O2

**For a gas, SI = log10(fugacity). Fugacity = pressure * phi / 1 atm.
  For ideal gases, phi = 1.

Reaction step 7.

Using solution 1.	
Using temperature 1.	
Using pressure 1.	
Using reaction 1.	

Reaction 1.	

	  3.015e-02 moles of the following reaction have been added:

	                 Relative
	Reactant            moles

	KHCO3                1.00000

	                 Relative
	Element             moles
	C                    1.00000
	H                    1.00000
	K                    1.00000
	O                    3.00000

-----------------------------Solution composition------------------------------

	Elements           Molality       Moles

	C                 3.015e-02   3.015e-02
	K                 3.015e-02   3.015e-02

----------------------------Description of solution----------------------------

                                       pH  =   8.341      Charge balance
                                       pe  =  -2.774      Adjusted to redox equilibrium
      Specific Conductance (µS/cm,  10°C)  = 2313
                          Density (g/cm³)  =   1.00176
                               Volume (L)  =   1.00125
                        Viscosity (mPa s)  =   1.31079
                        Activity of water  =   0.999
                 Ionic strength (mol/kgw)  =   3.048e-02
                       Mass of water (kg)  =   1.000e+00
                 Total alkalinity (eq/kg)  =   3.015e-02
                       Total CO2 (mol/kg)  =   3.015e-02
                         Temperature (°C)  =  10.00
                  Electrical balance (eq)  =  -1.304e-10
 Percent error, 100*(Cat-|An|)/(Cat+|An|)  =  -0.00
                               Iterations  =  11
                                  Total H  = 1.110426e+02
                                  Total O  = 5.559667e+01

----------------------------Distribution of species----------------------------

                                               Log       Log       Log    mole V
   Species          Molality    Activity  Molality  Activity     Gamma   cm³/mol

   OH-             7.621e-07   6.449e-07    -6.118    -6.190    -0.072     -4.86
   H+              5.201e-09   4.556e-09    -8.284    -8.341    -0.057      0.00
   H2O             5.551e+01   9.990e-01     1.744    -0.000     0.000     18.02
C(-4)         2.996e-22
   CH4             2.996e-22   3.017e-22   -21.524   -21.520     0.003     33.98
C(4)          3.015e-02
   HCO3-           2.948e-02   2.530e-02    -1.530    -1.597    -0.066     23.06
   CO2             3.338e-04   3.354e-04    -3.477    -3.474     0.002     33.66
   CO3-2           3.331e-04   1.805e-04    -3.477    -3.743    -0.266     -5.87
   (CO2)2          1.194e-09   1.203e-09    -8.923    -8.920     0.003     67.32
H(0)          1.208e-14
   H2              6.040e-15   6.083e-15   -14.219   -14.216     0.003     28.63
K             3.015e-02
   K+              3.015e-02   2.554e-02    -1.521    -1.593    -0.072      8.50
O(0)          0.000e+00
   O2              0.000e+00   0.000e+00   -69.049   -69.046     0.003     28.95

------------------------------Saturation indices-------------------------------

  Phase               SI** log IAP   log K(283 K,   1 atm)

  CH4(g)          -18.89    -21.52   -2.63  CH4
  CO2(g)           -2.21     -3.47   -1.27  CO2
  H2(g)           -11.16    -14.22   -3.05  H2
  H2O(g)           -1.91     -0.00    1.91  H2O
  O2(g)           -66.28    -69.05   -2.77  O2

**For a gas, SI = log10(fugacity). Fugacity = pressure * phi / 1 atm.
  For ideal gases, phi = 1.

Reaction step 8.

Using solution 1.	
Using temperature 1.	
Using pressure 1.	
Using reaction 1.	

Reaction 1.	

	  1.505e-02 moles of the following reaction have been added:

	                 Relative
	Reactant            moles

	KHCO3                1.00000

	                 Relative
	Element             moles
	C                    1.00000
	H                    1.00000
	K                    1.00000
	O                    3.00000

-----------------------------Solution composition------------------------------

	Elements           Molality       Moles

	C                 1.505e-02   1.505e-02
	K                 1.505e-02   1.505e-02

----------------------------Description of solution----------------------------

                                       pH  =   8.373      Charge balance
                                       pe  =  -2.509      Adjusted to redox equilibrium
      Specific Conductance (µS/cm,  10°C)  = 1174
                          Density (g/cm³)  =   1.00073
                               Volume (L)  =   1.00077
                        Viscosity (mPa s)  =   1.30863
                        Activity of water  =   0.999
                 Ionic strength (mol/kgw)  =   1.521e-02
                       Mass of water (kg)  =   1.000e+00
                 Total alkalinity (eq/kg)  =   1.505e-02
                       Total CO2 (mol/kg)  =   1.505e-02
                         Temperature (°C)  =  10.00
                  Electrical balance (eq)  =   3.595e-14
 Percent error, 100*(Cat-|An|)/(Cat+|An|)  =   0.00
                               Iterations  =  11
                                  Total H  = 1.110275e+02
                                  Total O  = 5.555137e+01

----------------------------Distribution of species----------------------------

                                               Log       Log       Log    mole V
   Species          Molality    Activity  Molality  Activity     Gamma   cm³/mol

   OH-             7.861e-07   6.945e-07    -6.105    -6.158    -0.054     -4.92
   H+              4.697e-09   4.234e-09    -8.328    -8.373    -0.045      0.00
   H2O             5.551e+01   9.995e-01     1.744    -0.000     0.000     18.02
C(-4)         6.070e-25
   CH4             6.070e-25   6.091e-25   -24.217   -24.215     0.002     33.98
C(4)          1.505e-02
   HCO3-           1.473e-02   1.311e-02    -1.832    -1.882    -0.050     22.96
   CO2             1.611e-04   1.614e-04    -3.793    -3.792     0.001     33.66
   CO3-2           1.603e-04   1.007e-04    -3.795    -3.997    -0.202     -6.09
   (CO2)2          2.777e-10   2.787e-10    -9.556    -9.555     0.002     67.32
H(0)          3.086e-15
   H2              1.543e-15   1.548e-15   -14.812   -14.810     0.002     28.63
K             1.505e-02
   K+              1.505e-02   1.330e-02    -1.822    -1.876    -0.054      8.46
O(0)          0.000e+00
   O2              0.000e+00   0.000e+00   -67.859   -67.858     0.002     28.95

------------------------------Saturation indices-------------------------------

  Phase               SI** log IAP   log K(283 K,   1 atm)

  CH4(g)          -21.58    -24.22   -2.63  CH4
  CO2(g)           -2.52     -3.79   -1.27  CO2
  H2(g)           -11.76    -14.81   -3.05  H2
  H2O(g)           -1.91     -0.00    1.91  H2O
  O2(g)           -65.09    -67.86   -2.77  O2

**For a gas, SI = log10(fugacity). Fugacity = pressure * phi / 1 atm.
  For ideal gases, phi = 1.

------------------
End of simulation.
------------------

------------------------------------
Reading input data for simulation 4.
------------------------------------

	USE solution 1
	REACTION_TEMPERATURE
	 15.000000
	REACTION_PRESSURE
	 1.000000
	REACTION
	 KHCO3 1
	0  0.50348 0.30169 0.15050 0.08064 0.05045 0.03015 0.01505
	USER_GRAPH
	 -headings 15.oC
	10 data 0, 34.16, 33.49, 32.75, 32.77, 32.22, 32.43, 33.48
	20 dim d(8)
	30 read d(1), d(2), d(3), d(4), d(5), d(6), d(7), d(8),
	40 if step_no = 1 then put(rho, 10)
	50 if step_no > 1 then Vmol = (1e3 + tot("K") * 100.1211) / (tot("K") * rho) - 1e3 / (tot("K") * get(10))
	60 if step_no = 1 then dif = 0 else dif = Vmol - d(step_no)
	62 if step_no = 1 then goto 90
	70 plot_xy tot("K"), d(step_no), line_w = 0, color = Magenta #aph_x tot("K") # dif, str$(tc), str$(pressure), str$(step_no + get(1))
	80 plot_xy tot("K"), Vmol, symbol = None, color = Magenta  #step_no = 93 then put(step_no + get(1), 1)
	 90 end
	END
-----------------------------------------
Beginning of batch-reaction calculations.
-----------------------------------------

Reaction step 1.

Using solution 1.	
Using temperature 1.	
Using pressure 1.	
Using reaction 1.	

Reaction 1.	

	  0.000e+00 moles of the following reaction have been added:

	                 Relative
	Reactant            moles

	KHCO3                1.00000

	                 Relative
	Element             moles
	C                    1.00000
	H                    1.00000
	K                    1.00000
	O                    3.00000

-----------------------------Solution composition------------------------------

	Elements           Molality       Moles

	Pure water     

----------------------------Description of solution----------------------------

                                       pH  =   7.172      Charge balance
                                       pe  =  -0.315      Adjusted to redox equilibrium
      Specific Conductance (µS/cm,  15°C)  = 0
                          Density (g/cm³)  =   0.99910
                               Volume (L)  =   1.00090
                        Viscosity (mPa s)  =   1.13757
                        Activity of water  =   1.000
                 Ionic strength (mol/kgw)  =   6.737e-08
                       Mass of water (kg)  =   1.000e+00
                 Total alkalinity (eq/kg)  =   9.842e-17
                         Temperature (°C)  =  15.00
                  Electrical balance (eq)  =  -9.842e-17
 Percent error, 100*(Cat-|An|)/(Cat+|An|)  =  -0.00
                               Iterations  =   7
                                  Total H  = 1.110124e+02
                                  Total O  = 5.550622e+01

----------------------------Distribution of species----------------------------

                                               Log       Log       Log    mole V
   Species          Molality    Activity  Molality  Activity     Gamma   cm³/mol

   OH-             6.737e-08   6.735e-08    -7.172    -7.172    -0.000     -4.65
   H+              6.737e-08   6.735e-08    -7.172    -7.172    -0.000      0.00
   H2O             5.551e+01   1.000e+00     1.744    -0.000     0.000     18.03
H(0)          3.042e-17
   H2              1.521e-17   1.521e-17   -16.818   -16.818     0.000     28.62
O(0)          0.000e+00
   O2              0.000e+00   0.000e+00   -62.084   -62.084     0.000     29.51

------------------------------Saturation indices-------------------------------

  Phase               SI** log IAP   log K(288 K,   1 atm)

  H2(g)           -13.75    -16.82   -3.07  H2
  H2O(g)           -1.77     -0.00    1.77  H2O
  O2(g)           -59.27    -62.08   -2.81  O2

**For a gas, SI = log10(fugacity). Fugacity = pressure * phi / 1 atm.
  For ideal gases, phi = 1.

Reaction step 2.

Using solution 1.	
Using temperature 1.	
Using pressure 1.	
Using reaction 1.	

Reaction 1.	

	  5.035e-01 moles of the following reaction have been added:

	                 Relative
	Reactant            moles

	KHCO3                1.00000

	                 Relative
	Element             moles
	C                    1.00000
	H                    1.00000
	K                    1.00000
	O                    3.00000

-----------------------------Solution composition------------------------------

	Elements           Molality       Moles

	C                 5.034e-01   5.035e-01
	K                 5.034e-01   5.035e-01

----------------------------Description of solution----------------------------

                                       pH  =   8.094      Charge balance
                                       pe  =  10.641      Adjusted to redox equilibrium
      Specific Conductance (µS/cm,  15°C)  = 35358
                          Density (g/cm³)  =   1.03155
                               Volume (L)  =   1.01828
                        Viscosity (mPa s)  =   1.20775
                        Activity of water  =   0.983
                 Ionic strength (mol/kgw)  =   5.102e-01
                       Mass of water (kg)  =   1.000e+00
                 Total alkalinity (eq/kg)  =   5.034e-01
                       Total CO2 (mol/kg)  =   5.034e-01
                         Temperature (°C)  =  15.00
                  Electrical balance (eq)  =   4.422e-14
 Percent error, 100*(Cat-|An|)/(Cat+|An|)  =   0.00
                               Iterations  =  12
                                  Total H  = 1.115159e+02
                                  Total O  = 5.701666e+01

----------------------------Distribution of species----------------------------

                                               Log       Log       Log    mole V
   Species          Molality    Activity  Molality  Activity     Gamma   cm³/mol

   OH-             8.709e-07   5.530e-07    -6.060    -6.257    -0.197     -3.48
   H+              1.052e-08   8.062e-09    -7.978    -8.094    -0.116      0.00
   H2O             5.551e+01   9.829e-01     1.744    -0.007     0.000     18.03
C(-4)         0.000e+00
   CH4             0.000e+00   0.000e+00  -126.273  -126.222     0.051     34.53
C(4)          5.034e-01
   HCO3-           4.899e-01   3.401e-01    -0.310    -0.468    -0.158     25.33
   CO3-2           6.772e-03   1.573e-03    -2.169    -2.803    -0.634     -2.27
   CO2             6.771e-03   7.317e-03    -2.169    -2.136     0.034     33.93
   (CO2)2          6.159e-07   6.927e-07    -6.210    -6.159     0.051     67.86
H(0)          0.000e+00
   H2              0.000e+00   0.000e+00   -40.626   -40.575     0.051     28.62
K             5.034e-01
   K+              5.034e-01   3.254e-01    -0.298    -0.488    -0.190      9.20
O(0)          4.628e-15
   O2              2.314e-15   2.603e-15   -14.636   -14.585     0.051     29.51

------------------------------Saturation indices-------------------------------

  Phase               SI** log IAP   log K(288 K,   1 atm)

  CH4(g)         -123.53   -126.22   -2.70  CH4
  CO2(g)           -0.79     -2.14   -1.34  CO2
  H2(g)           -37.50    -40.57   -3.07  H2
  H2O(g)           -1.78     -0.01    1.77  H2O
  O2(g)           -11.77    -14.58   -2.81  O2

**For a gas, SI = log10(fugacity). Fugacity = pressure * phi / 1 atm.
  For ideal gases, phi = 1.

Reaction step 3.

Using solution 1.	
Using temperature 1.	
Using pressure 1.	
Using reaction 1.	

Reaction 1.	

	  3.017e-01 moles of the following reaction have been added:

	                 Relative
	Reactant            moles

	KHCO3                1.00000

	                 Relative
	Element             moles
	C                    1.00000
	H                    1.00000
	K                    1.00000
	O                    3.00000

-----------------------------Solution composition------------------------------

	Elements           Molality       Moles

	C                 3.017e-01   3.017e-01
	K                 3.017e-01   3.017e-01

----------------------------Description of solution----------------------------

                                       pH  =   8.135      Charge balance
                                       pe  =  10.604      Adjusted to redox equilibrium
      Specific Conductance (µS/cm,  15°C)  = 22974
                          Density (g/cm³)  =   1.01889
                               Volume (L)  =   1.01110
                        Viscosity (mPa s)  =   1.18085
                        Activity of water  =   0.990
                 Ionic strength (mol/kgw)  =   3.056e-01
                       Mass of water (kg)  =   1.000e+00
                 Total alkalinity (eq/kg)  =   3.017e-01
                       Total CO2 (mol/kg)  =   3.017e-01
                         Temperature (°C)  =  15.00
                  Electrical balance (eq)  =   4.840e-14
 Percent error, 100*(Cat-|An|)/(Cat+|An|)  =   0.00
                               Iterations  =  12
                                  Total H  = 1.113141e+02
                                  Total O  = 5.641129e+01

----------------------------Distribution of species----------------------------

                                               Log       Log       Log    mole V
   Species          Molality    Activity  Molality  Activity     Gamma   cm³/mol

   OH-             9.060e-07   6.127e-07    -6.043    -6.213    -0.170     -3.84
   H+              9.345e-09   7.328e-09    -8.029    -8.135    -0.106      0.00
   H2O             5.551e+01   9.897e-01     1.744    -0.004     0.000     18.03
C(-4)         0.000e+00
   CH4             0.000e+00   0.000e+00  -126.538  -126.507     0.031     34.53
C(4)          3.017e-01
   HCO3-           2.938e-01   2.126e-01    -0.532    -0.672    -0.140     24.77
   CO2             3.942e-03   4.130e-03    -2.404    -2.384     0.020     33.93
   CO3-2           3.942e-03   1.082e-03    -2.404    -2.966    -0.561     -3.07
   (CO2)2          2.057e-07   2.206e-07    -6.687    -6.656     0.031     67.86
H(0)          0.000e+00
   H2              0.000e+00   0.000e+00   -40.613   -40.582     0.031     28.62
K             3.017e-01
   K+              3.017e-01   2.062e-01    -0.520    -0.686    -0.165      9.05
O(0)          5.095e-15
   O2              2.547e-15   2.733e-15   -14.594   -14.563     0.031     29.51

------------------------------Saturation indices-------------------------------

  Phase               SI** log IAP   log K(288 K,   1 atm)

  CH4(g)         -123.81   -126.51   -2.70  CH4
  CO2(g)           -1.04     -2.38   -1.34  CO2
  H2(g)           -37.51    -40.58   -3.07  H2
  H2O(g)           -1.77     -0.00    1.77  H2O
  O2(g)           -11.75    -14.56   -2.81  O2

**For a gas, SI = log10(fugacity). Fugacity = pressure * phi / 1 atm.
  For ideal gases, phi = 1.

Reaction step 4.

Using solution 1.	
Using temperature 1.	
Using pressure 1.	
Using reaction 1.	

Reaction 1.	

	  1.505e-01 moles of the following reaction have been added:

	                 Relative
	Reactant            moles

	KHCO3                1.00000

	                 Relative
	Element             moles
	C                    1.00000
	H                    1.00000
	K                    1.00000
	O                    3.00000

-----------------------------Solution composition------------------------------

	Elements           Molality       Moles

	C                 1.505e-01   1.505e-01
	K                 1.505e-01   1.505e-01

----------------------------Description of solution----------------------------

                                       pH  =   8.188      Charge balance
                                       pe  =  10.563      Adjusted to redox equilibrium
      Specific Conductance (µS/cm,  15°C)  = 12232
                          Density (g/cm³)  =   1.00912
                               Volume (L)  =   1.00590
                        Viscosity (mPa s)  =   1.16011
                        Activity of water  =   0.995
                 Ionic strength (mol/kgw)  =   1.524e-01
                       Mass of water (kg)  =   1.000e+00
                 Total alkalinity (eq/kg)  =   1.505e-01
                       Total CO2 (mol/kg)  =   1.505e-01
                         Temperature (°C)  =  15.00
                  Electrical balance (eq)  =   4.464e-14
 Percent error, 100*(Cat-|An|)/(Cat+|An|)  =   0.00
                               Iterations  =  12
                                  Total H  = 1.111629e+02
                                  Total O  = 5.595772e+01

----------------------------Distribution of species----------------------------

                                               Log       Log       Log    mole V
   Species          Molality    Activity  Molality  Activity     Gamma   cm³/mol

   OH-             9.497e-07   6.953e-07    -6.022    -6.158    -0.135     -4.15
   H+              8.006e-09   6.491e-09    -8.097    -8.188    -0.091      0.00
   H2O             5.551e+01   9.949e-01     1.744    -0.002     0.000     18.03
C(-4)         0.000e+00
   CH4             0.000e+00   0.000e+00  -126.954  -126.938     0.015     34.53
C(4)          1.505e-01
   HCO3-           1.467e-01   1.124e-01    -0.833    -0.949    -0.116     24.28
   CO2             1.879e-03   1.923e-03    -2.726    -2.716     0.010     33.93
   CO3-2           1.878e-03   6.455e-04    -2.726    -3.190    -0.464     -3.85
   (CO2)2          4.618e-08   4.783e-08    -7.336    -7.320     0.015     67.86
H(0)          0.000e+00
   H2              0.000e+00   0.000e+00   -40.621   -40.606     0.015     28.62
K             1.505e-01
   K+              1.505e-01   1.108e-01    -0.822    -0.956    -0.133      8.91
O(0)          5.945e-15
   O2              2.973e-15   3.079e-15   -14.527   -14.512     0.015     29.51

------------------------------Saturation indices-------------------------------

  Phase               SI** log IAP   log K(288 K,   1 atm)

  CH4(g)         -124.24   -126.94   -2.70  CH4
  CO2(g)           -1.38     -2.72   -1.34  CO2
  H2(g)           -37.53    -40.61   -3.07  H2
  H2O(g)           -1.77     -0.00    1.77  H2O
  O2(g)           -11.70    -14.51   -2.81  O2

**For a gas, SI = log10(fugacity). Fugacity = pressure * phi / 1 atm.
  For ideal gases, phi = 1.

Reaction step 5.

Using solution 1.	
Using temperature 1.	
Using pressure 1.	
Using reaction 1.	

Reaction 1.	

	  8.064e-02 moles of the following reaction have been added:

	                 Relative
	Reactant            moles

	KHCO3                1.00000

	                 Relative
	Element             moles
	C                    1.00000
	H                    1.00000
	K                    1.00000
	O                    3.00000

-----------------------------Solution composition------------------------------

	Elements           Molality       Moles

	C                 8.064e-02   8.064e-02
	K                 8.064e-02   8.064e-02

----------------------------Description of solution----------------------------

                                       pH  =   8.231      Charge balance
                                       pe  =  -2.274      Adjusted to redox equilibrium
      Specific Conductance (µS/cm,  15°C)  = 6784
                          Density (g/cm³)  =   1.00451
                               Volume (L)  =   1.00355
                        Viscosity (mPa s)  =   1.15023
                        Activity of water  =   0.997
                 Ionic strength (mol/kgw)  =   8.160e-02
                       Mass of water (kg)  =   1.000e+00
                 Total alkalinity (eq/kg)  =   8.064e-02
                       Total CO2 (mol/kg)  =   8.064e-02
                         Temperature (°C)  =  15.00
                  Electrical balance (eq)  =   2.010e-14
 Percent error, 100*(Cat-|An|)/(Cat+|An|)  =   0.00
                               Iterations  =  11
                                  Total H  = 1.110931e+02
                                  Total O  = 5.574814e+01

----------------------------Distribution of species----------------------------

                                               Log       Log       Log    mole V
   Species          Molality    Activity  Molality  Activity     Gamma   cm³/mol

   OH-             9.869e-07   7.696e-07    -6.006    -6.114    -0.108     -4.32
   H+              7.033e-09   5.878e-09    -8.153    -8.231    -0.078      0.00
   H2O             5.551e+01   9.973e-01     1.744    -0.001     0.000     18.03
C(-4)         1.272e-25
   CH4             1.272e-25   1.296e-25   -24.896   -24.887     0.008     34.53
C(4)          8.064e-02
   HCO3-           7.871e-02   6.321e-02    -1.104    -1.199    -0.095     24.01
   CO2             9.652e-04   9.772e-04    -3.015    -3.010     0.005     33.93
   CO3-2           9.642e-04   4.009e-04    -3.016    -3.397    -0.381     -4.34
   (CO2)2          1.212e-08   1.235e-08    -7.916    -7.908     0.008     67.86
H(0)          1.877e-15
   H2              9.387e-16   9.565e-16   -15.027   -15.019     0.008     28.62
K             8.064e-02
   K+              8.064e-02   6.306e-02    -1.093    -1.200    -0.107      8.83
O(0)          0.000e+00
   O2              0.000e+00   0.000e+00   -65.691   -65.683     0.008     29.51

------------------------------Saturation indices-------------------------------

  Phase               SI** log IAP   log K(288 K,   1 atm)

  CH4(g)          -22.19    -24.89   -2.70  CH4
  CO2(g)           -1.67     -3.01   -1.34  CO2
  H2(g)           -11.95    -15.02   -3.07  H2
  H2O(g)           -1.77     -0.00    1.77  H2O
  O2(g)           -62.87    -65.68   -2.81  O2

**For a gas, SI = log10(fugacity). Fugacity = pressure * phi / 1 atm.
  For ideal gases, phi = 1.

Reaction step 6.

Using solution 1.	
Using temperature 1.	
Using pressure 1.	
Using reaction 1.	

Reaction 1.	

	  5.045e-02 moles of the following reaction have been added:

	                 Relative
	Reactant            moles

	KHCO3                1.00000

	                 Relative
	Element             moles
	C                    1.00000
	H                    1.00000
	K                    1.00000
	O                    3.00000

-----------------------------Solution composition------------------------------

	Elements           Molality       Moles

	C                 5.045e-02   5.045e-02
	K                 5.045e-02   5.045e-02

----------------------------Description of solution----------------------------

                                       pH  =   8.260      Charge balance
                                       pe  =  10.358      Adjusted to redox equilibrium
      Specific Conductance (µS/cm,  15°C)  = 4323
                          Density (g/cm³)  =   1.00250
                               Volume (L)  =   1.00255
                        Viscosity (mPa s)  =   1.14584
                        Activity of water  =   0.998
                 Ionic strength (mol/kgw)  =   5.103e-02
                       Mass of water (kg)  =   1.000e+00
                 Total alkalinity (eq/kg)  =   5.045e-02
                       Total CO2 (mol/kg)  =   5.045e-02
                         Temperature (°C)  =  15.00
                  Electrical balance (eq)  =   2.554e-14
 Percent error, 100*(Cat-|An|)/(Cat+|An|)  =   0.00
                               Iterations  =  12
                                  Total H  = 1.110629e+02
                                  Total O  = 5.565757e+01

----------------------------Distribution of species----------------------------

                                               Log       Log       Log    mole V
   Species          Molality    Activity  Molality  Activity     Gamma   cm³/mol

   OH-             1.014e-06   8.238e-07    -5.994    -6.084    -0.090     -4.40
   H+              6.430e-09   5.497e-09    -8.192    -8.260    -0.068      0.00
   H2O             5.551e+01   9.983e-01     1.744    -0.001     0.000     18.03
C(-4)         0.000e+00
   CH4             0.000e+00   0.000e+00  -126.403  -126.398     0.005     34.53
C(4)          5.045e-02
   HCO3-           4.928e-02   4.089e-02    -1.307    -1.388    -0.081     23.87
   CO2             5.860e-04   5.906e-04    -3.232    -3.229     0.003     33.93
   CO3-2           5.850e-04   2.774e-04    -3.233    -3.557    -0.324     -4.61
   (CO2)2          4.460e-09   4.513e-09    -8.351    -8.346     0.005     67.86
H(0)          0.000e+00
   H2              0.000e+00   0.000e+00   -40.347   -40.342     0.005     28.62
K             5.045e-02
   K+              5.045e-02   4.107e-02    -1.297    -1.386    -0.089      8.79
O(0)          1.816e-15
   O2              9.081e-16   9.188e-16   -15.042   -15.037     0.005     29.51

------------------------------Saturation indices-------------------------------

  Phase               SI** log IAP   log K(288 K,   1 atm)

  CH4(g)         -123.70   -126.40   -2.70  CH4
  CO2(g)           -1.89     -3.23   -1.34  CO2
  H2(g)           -37.27    -40.34   -3.07  H2
  H2O(g)           -1.77     -0.00    1.77  H2O
  O2(g)           -12.22    -15.04   -2.81  O2

**For a gas, SI = log10(fugacity). Fugacity = pressure * phi / 1 atm.
  For ideal gases, phi = 1.

Reaction step 7.

Using solution 1.	
Using temperature 1.	
Using pressure 1.	
Using reaction 1.	

Reaction 1.	

[...]
      Specific Conductance (µS/cm,  95°C)  = 73741
                          Density (g/cm³)  =   0.98058
                               Volume (L)  =   1.05061
                        Viscosity (mPa s)  =   0.41453
                        Activity of water  =   0.990
                 Ionic strength (mol/kgw)  =   3.072e-01
                       Mass of water (kg)  =   1.000e+00
                 Total alkalinity (eq/kg)  =   3.017e-01
                       Total CO2 (mol/kg)  =   3.017e-01
                         Temperature (°C)  =  95.00
                  Electrical balance (eq)  =   3.975e-13
 Percent error, 100*(Cat-|An|)/(Cat+|An|)  =   0.00
                               Iterations  =   7
                                  Total H  = 1.113141e+02
                                  Total O  = 5.641129e+01

----------------------------Distribution of species----------------------------

                                               Log       Log       Log    mole V
   Species          Molality    Activity  Molality  Activity     Gamma   cm³/mol

   OH-             6.473e-05   4.107e-05    -4.189    -4.387    -0.198     -4.21
   H+              1.528e-08   1.155e-08    -7.816    -7.937    -0.122      0.00
   H2O             5.551e+01   9.897e-01     1.744    -0.004     0.000     18.73
C(-4)         0.000e+00
   CH4             0.000e+00   0.000e+00   -91.787   -91.757     0.031     40.63
C(4)          3.017e-01
   HCO3-           2.905e-01   1.998e-01    -0.537    -0.699    -0.162     25.72
   CO2             5.607e-03   5.875e-03    -2.251    -2.231     0.020     38.49
   CO3-2           5.548e-03   1.242e-03    -2.256    -2.906    -0.650     -4.12
   (CO2)2          2.797e-06   3.002e-06    -5.553    -5.523     0.031     76.97
H(0)          3.067e-30
   H2              1.534e-30   1.646e-30   -29.814   -29.784     0.031     28.57
K             3.017e-01
   K+              3.017e-01   1.934e-01    -0.520    -0.713    -0.193     10.65
O(0)          5.543e-15
   O2              2.772e-15   2.975e-15   -14.557   -14.527     0.031     33.72

------------------------------Saturation indices-------------------------------

  Phase               SI** log IAP   log K(368 K,   1 atm)

  CH4(g)          -88.75    -91.76   -3.01  CH4
  CO2(g)           -0.27     -2.23   -1.96  CO2
  H2(g)           -26.67    -29.78   -3.11  H2
  H2O(g)           -0.09     -0.00    0.08  H2O
  O2(g)           -11.41    -14.53   -3.11  O2

**For a gas, SI = log10(fugacity). Fugacity = pressure * phi / 1 atm.
  For ideal gases, phi = 1.

Reaction step 4.

Using solution 1.	
Using temperature 1.	
Using pressure 1.	
Using reaction 1.	

Reaction 1.	

	  1.505e-01 moles of the following reaction have been added:

	                 Relative
	Reactant            moles

	KHCO3                1.00000

	                 Relative
	Element             moles
	C                    1.00000
	H                    1.00000
	K                    1.00000
	O                    3.00000

-----------------------------Solution composition------------------------------

	Elements           Molality       Moles

	C                 1.505e-01   1.505e-01
	K                 1.505e-01   1.505e-01

----------------------------Description of solution----------------------------

                                       pH  =   7.994      Charge balance
                                       pe  =   5.210      Adjusted to redox equilibrium
      Specific Conductance (µS/cm,  95°C)  = 40444
                          Density (g/cm³)  =   0.97135
                               Volume (L)  =   1.04501
                        Viscosity (mPa s)  =   0.35607
                        Activity of water  =   0.995
                 Ionic strength (mol/kgw)  =   1.531e-01
                       Mass of water (kg)  =   1.000e+00
                 Total alkalinity (eq/kg)  =   1.505e-01
                       Total CO2 (mol/kg)  =   1.505e-01
                         Temperature (°C)  =  95.00
                  Electrical balance (eq)  =   5.806e-13
 Percent error, 100*(Cat-|An|)/(Cat+|An|)  =   0.00
                               Iterations  =   7
                                  Total H  = 1.111629e+02
                                  Total O  = 5.595772e+01

----------------------------Distribution of species----------------------------

                                               Log       Log       Log    mole V
   Species          Molality    Activity  Molality  Activity     Gamma   cm³/mol

   OH-             6.762e-05   4.700e-05    -4.170    -4.328    -0.158     -4.68
   H+              1.293e-08   1.014e-08    -7.888    -7.994    -0.105      0.00
   H2O             5.551e+01   9.949e-01     1.744    -0.002     0.000     18.73
C(-4)         0.000e+00
   CH4             0.000e+00   0.000e+00   -92.184   -92.169     0.015     40.63
C(4)          1.505e-01
   HCO3-           1.452e-01   1.065e-01    -0.838    -0.973    -0.135     25.26
   CO2             2.673e-03   2.736e-03    -2.573    -2.563     0.010     38.49
   CO3-2           2.606e-03   7.537e-04    -2.584    -3.123    -0.539     -5.03
   (CO2)2          6.284e-07   6.509e-07    -6.202    -6.186     0.015     76.97
H(0)          3.043e-30
   H2              1.522e-30   1.576e-30   -29.818   -29.802     0.015     28.57
K             1.505e-01
   K+              1.505e-01   1.052e-01    -0.822    -0.978    -0.156     10.49
O(0)          6.330e-15
   O2              3.165e-15   3.278e-15   -14.500   -14.484     0.015     33.72

------------------------------Saturation indices-------------------------------

  Phase               SI** log IAP   log K(368 K,   1 atm)

  CH4(g)          -89.16    -92.17   -3.01  CH4
  CO2(g)           -0.60     -2.56   -1.96  CO2
  H2(g)           -26.69    -29.80   -3.11  H2
  H2O(g)           -0.09     -0.00    0.08  H2O
  O2(g)           -11.37    -14.48   -3.11  O2

**For a gas, SI = log10(fugacity). Fugacity = pressure * phi / 1 atm.
  For ideal gases, phi = 1.

Reaction step 5.

Using solution 1.	
Using temperature 1.	
Using pressure 1.	
Using reaction 1.	

Reaction 1.	

	  8.064e-02 moles of the following reaction have been added:

	                 Relative
	Reactant            moles

	KHCO3                1.00000

	                 Relative
	Element             moles
	C                    1.00000
	H                    1.00000
	K                    1.00000
	O                    3.00000

-----------------------------Solution composition------------------------------

	Elements           Molality       Moles

	C                 8.064e-02   8.064e-02
	K                 8.064e-02   8.064e-02

----------------------------Description of solution----------------------------

                                       pH  =   8.037      Charge balance
                                       pe  =  -2.216      Adjusted to redox equilibrium
      Specific Conductance (µS/cm,  95°C)  = 22714
                          Density (g/cm³)  =   0.96700
                               Volume (L)  =   1.04248
                        Viscosity (mPa s)  =   0.32888
                        Activity of water  =   0.997
                 Ionic strength (mol/kgw)  =   8.195e-02
                       Mass of water (kg)  =   1.000e+00
                 Total alkalinity (eq/kg)  =   8.064e-02
                       Total CO2 (mol/kg)  =   8.064e-02
                         Temperature (°C)  =  95.00
                  Electrical balance (eq)  =   2.501e-13
 Percent error, 100*(Cat-|An|)/(Cat+|An|)  =   0.00
                               Iterations  =  10
                                  Total H  = 1.110931e+02
                                  Total O  = 5.574814e+01

----------------------------Distribution of species----------------------------

                                               Log       Log       Log    mole V
   Species          Molality    Activity  Molality  Activity     Gamma   cm³/mol

   OH-             6.966e-05   5.207e-05    -4.157    -4.283    -0.126     -4.96
   H+              1.130e-08   9.179e-09    -7.947    -8.037    -0.090      0.00
   H2O             5.551e+01   9.973e-01     1.744    -0.001     0.000     18.73
C(-4)         3.903e-34
   CH4             3.903e-34   3.977e-34   -33.409   -33.400     0.008     40.63
C(4)          8.064e-02
   HCO3-           7.794e-02   6.036e-02    -1.108    -1.219    -0.111     24.98
   CO2             1.382e-03   1.400e-03    -2.859    -2.854     0.005     38.49
   CO3-2           1.313e-03   4.722e-04    -2.882    -3.326    -0.444     -5.65
   (CO2)2          1.672e-07   1.704e-07    -6.777    -6.769     0.008     76.97
H(0)          1.802e-15
   H2              9.010e-16   9.182e-16   -15.045   -15.037     0.008     28.57
K             8.064e-02
   K+              8.064e-02   6.045e-02    -1.093    -1.219    -0.125     10.38
O(0)          0.000e+00
   O2              0.000e+00   0.000e+00   -44.021   -44.013     0.008     33.72

------------------------------Saturation indices-------------------------------

  Phase               SI** log IAP   log K(368 K,   1 atm)

  CH4(g)          -30.39    -33.40   -3.01  CH4
  CO2(g)           -0.89     -2.85   -1.96  CO2
  H2(g)           -11.93    -15.04   -3.11  H2
  H2O(g)           -0.08     -0.00    0.08  H2O
  O2(g)           -40.90    -44.01   -3.11  O2

**For a gas, SI = log10(fugacity). Fugacity = pressure * phi / 1 atm.
  For ideal gases, phi = 1.

Reaction step 6.

Using solution 1.	
Using temperature 1.	
Using pressure 1.	
Using reaction 1.	

Reaction 1.	

	  5.045e-02 moles of the following reaction have been added:

	                 Relative
	Reactant            moles

	KHCO3                1.00000

	                 Relative
	Element             moles
	C                    1.00000
	H                    1.00000
	K                    1.00000
	O                    3.00000

-----------------------------Solution composition------------------------------

	Elements           Molality       Moles

	C                 5.045e-02   5.045e-02
	K                 5.045e-02   5.045e-02

----------------------------Description of solution----------------------------

                                       pH  =   8.063      Charge balance
                                       pe  =   5.055      Adjusted to redox equilibrium
      Specific Conductance (µS/cm,  95°C)  = 14553
                          Density (g/cm³)  =   0.96510
                               Volume (L)  =   1.04140
                        Viscosity (mPa s)  =   0.31709
                        Activity of water  =   0.998
                 Ionic strength (mol/kgw)  =   5.123e-02
                       Mass of water (kg)  =   1.000e+00
                 Total alkalinity (eq/kg)  =   5.045e-02
                       Total CO2 (mol/kg)  =   5.045e-02
                         Temperature (°C)  =  95.00
                  Electrical balance (eq)  =   1.074e-12
 Percent error, 100*(Cat-|An|)/(Cat+|An|)  =   0.00
                               Iterations  =   7
                                  Total H  = 1.110629e+02
                                  Total O  = 5.565757e+01

----------------------------Distribution of species----------------------------

                                               Log       Log       Log    mole V
   Species          Molality    Activity  Molality  Activity     Gamma   cm³/mol

   OH-             7.056e-05   5.533e-05    -4.151    -4.257    -0.106     -5.11
   H+              1.037e-08   8.645e-09    -7.984    -8.063    -0.079      0.00
   H2O             5.551e+01   9.983e-01     1.744    -0.001     0.000     18.73
C(-4)         0.000e+00
   CH4             0.000e+00   0.000e+00   -91.999   -91.994     0.005     40.63
C(4)          5.045e-02
   HCO3-           4.882e-02   3.926e-02    -1.311    -1.406    -0.095     24.83
   CO2             8.500e-04   8.567e-04    -3.071    -3.067     0.003     38.49
   CO3-2           7.796e-04   3.261e-04    -3.108    -3.487    -0.379     -6.01
   (CO2)2          6.308e-08   6.383e-08    -7.200    -7.195     0.005     76.97
H(0)          4.612e-30
   H2              2.306e-30   2.334e-30   -29.637   -29.632     0.005     28.57
K             5.045e-02
   K+              5.045e-02   3.963e-02    -1.297    -1.402    -0.105     10.30
O(0)          2.976e-15
   O2              1.488e-15   1.506e-15   -14.827   -14.822     0.005     33.72

------------------------------Saturation indices-------------------------------

  Phase               SI** log IAP   log K(368 K,   1 atm)

  CH4(g)          -88.98    -91.99   -3.01  CH4
  CO2(g)           -1.11     -3.07   -1.96  CO2
  H2(g)           -26.52    -29.63   -3.11  H2
  H2O(g)           -0.08     -0.00    0.08  H2O
  O2(g)           -11.71    -14.82   -3.11  O2

**For a gas, SI = log10(fugacity). Fugacity = pressure * phi / 1 atm.
  For ideal gases, phi = 1.

Reaction step 7.

Using solution 1.	
Using temperature 1.	
Using pressure 1.	
Using reaction 1.	

Reaction 1.	

	  3.015e-02 moles of the following reaction have been added:

	                 Relative
	Reactant            moles

	KHCO3                1.00000

	                 Relative
	Element             moles
	C                    1.00000
	H                    1.00000
	K                    1.00000
	O                    3.00000

-----------------------------Solution composition------------------------------

	Elements           Molality       Moles

	C                 3.015e-02   3.015e-02
	K                 3.015e-02   3.015e-02

----------------------------Description of solution----------------------------

                                       pH  =   8.083      Charge balance
                                       pe  =  -2.673      Adjusted to redox equilibrium
      Specific Conductance (µS/cm,  95°C)  = 8872
                          Density (g/cm³)  =   0.96381
                               Volume (L)  =   1.04068
                        Viscosity (mPa s)  =   0.30914
                        Activity of water  =   0.999
                 Ionic strength (mol/kgw)  =   3.059e-02
                       Mass of water (kg)  =   1.000e+00
                 Total alkalinity (eq/kg)  =   3.015e-02
                       Total CO2 (mol/kg)  =   3.015e-02
                         Temperature (°C)  =  95.00
                  Electrical balance (eq)  =   3.160e-15
 Percent error, 100*(Cat-|An|)/(Cat+|An|)  =   0.00
                               Iterations  =  11
                                  Total H  = 1.110426e+02
                                  Total O  = 5.559667e+01

----------------------------Distribution of species----------------------------

                                               Log       Log       Log    mole V
   Species          Molality    Activity  Molality  Activity     Gamma   cm³/mol

   OH-             7.052e-05   5.789e-05    -4.152    -4.237    -0.086     -5.23
   H+              9.658e-09   8.270e-09    -8.015    -8.083    -0.067      0.00
   H2O             5.551e+01   9.990e-01     1.744    -0.000     0.000     18.73
C(-4)         2.773e-31
   CH4             2.773e-31   2.793e-31   -30.557   -30.554     0.003     40.63
C(4)          3.015e-02
   HCO3-           2.921e-02   2.439e-02    -1.535    -1.613    -0.078     24.71
   CO2             5.062e-04   5.086e-04    -3.296    -3.294     0.002     38.49
   CO3-2           4.358e-04   2.117e-04    -3.361    -3.674    -0.313     -6.32
   (CO2)2          2.234e-08   2.250e-08    -7.651    -7.648     0.003     76.97
H(0)          1.210e-14
   H2              6.050e-15   6.093e-15   -14.218   -14.215     0.003     28.57
K             3.015e-02
   K+              3.015e-02   2.478e-02    -1.521    -1.606    -0.085     10.24
O(0)          0.000e+00
   O2              0.000e+00   0.000e+00   -45.658   -45.655     0.003     33.72

------------------------------Saturation indices-------------------------------

  Phase               SI** log IAP   log K(368 K,   1 atm)

  CH4(g)          -27.54    -30.55   -3.01  CH4
  CO2(g)           -1.33     -3.29   -1.96  CO2
  H2(g)           -11.11    -14.22   -3.11  H2
  H2O(g)           -0.08     -0.00    0.08  H2O
  O2(g)           -42.54    -45.66   -3.11  O2

**For a gas, SI = log10(fugacity). Fugacity = pressure * phi / 1 atm.
  For ideal gases, phi = 1.

Reaction step 8.

Using solution 1.	
Using temperature 1.	
Using pressure 1.	
Using reaction 1.	

Reaction 1.	

	  1.505e-02 moles of the following reaction have been added:

	                 Relative
	Reactant            moles

	KHCO3                1.00000

	                 Relative
	Element             moles
	C                    1.00000
	H                    1.00000
	K                    1.00000
	O                    3.00000

-----------------------------Solution composition------------------------------

	Elements           Molality       Moles

	C                 1.505e-02   1.505e-02
	K                 1.505e-02   1.505e-02

----------------------------Description of solution----------------------------

                                       pH  =   8.088      Charge balance
                                       pe  =  -2.381      Adjusted to redox equilibrium
      Specific Conductance (µS/cm,  95°C)  = 4525
                          Density (g/cm³)  =   0.96285
                               Volume (L)  =   1.04015
                        Viscosity (mPa s)  =   0.30320
                        Activity of water  =   0.999
                 Ionic strength (mol/kgw)  =   1.524e-02
                       Mass of water (kg)  =   1.000e+00
                 Total alkalinity (eq/kg)  =   1.505e-02
                       Total CO2 (mol/kg)  =   1.505e-02
                         Temperature (°C)  =  95.00
                  Electrical balance (eq)  =   1.043e-13
 Percent error, 100*(Cat-|An|)/(Cat+|An|)  =   0.00
                               Iterations  =  10
                                  Total H  = 1.110275e+02
                                  Total O  = 5.555137e+01

----------------------------Distribution of species----------------------------

                                               Log       Log       Log    mole V
   Species          Molality    Activity  Molality  Activity     Gamma   cm³/mol

   OH-             6.789e-05   5.862e-05    -4.168    -4.232    -0.064     -5.34
   H+              9.232e-09   8.171e-09    -8.035    -8.088    -0.053      0.00
   H2O             5.551e+01   9.995e-01     1.744    -0.000     0.000     18.73
C(-4)         6.004e-34
   CH4             6.004e-34   6.025e-34   -33.222   -33.220     0.002     40.63
C(4)          1.505e-02
   HCO3-           1.459e-02   1.272e-02    -1.836    -1.895    -0.060     24.59
   CO2             2.615e-04   2.621e-04    -3.583    -3.582     0.001     38.49
   CO3-2           1.936e-04   1.118e-04    -3.713    -3.952    -0.238     -6.65
   (CO2)2          5.952e-09   5.973e-09    -8.225    -8.224     0.002     76.97
H(0)          3.090e-15
   H2              1.545e-15   1.550e-15   -14.811   -14.810     0.002     28.57
K             1.505e-02
   K+              1.505e-02   1.300e-02    -1.822    -1.886    -0.064     10.16
O(0)          0.000e+00
   O2              0.000e+00   0.000e+00   -44.467   -44.466     0.002     33.72

------------------------------Saturation indices-------------------------------

  Phase               SI** log IAP   log K(368 K,   1 atm)

  CH4(g)          -30.21    -33.22   -3.01  CH4
  CO2(g)           -1.62     -3.58   -1.96  CO2
  H2(g)           -11.70    -14.81   -3.11  H2
  H2O(g)           -0.08     -0.00    0.08  H2O
  O2(g)           -41.35    -44.47   -3.11  O2

**For a gas, SI = log10(fugacity). Fugacity = pressure * phi / 1 atm.
  For ideal gases, phi = 1.

------------------
End of simulation.
------------------

-------------------------------------
Reading input data for simulation 13.
-------------------------------------

