WARNING: Database file from DATABASE keyword is used; command line argument ignored.
   Input file: Vm_MgCl2_sol
  Output file: Vm_MgCl2_sol.out
Database file: ../database/phreeqc.dat

------------------
Reading data base.
------------------

	SOLUTION_MASTER_SPECIES
	SOLUTION_SPECIES
	PHASES
	EXCHANGE_MASTER_SPECIES
	EXCHANGE_SPECIES
	SURFACE_MASTER_SPECIES
	SURFACE_SPECIES
	RATES
	END
------------------------------------
Reading input data for simulation 1.
------------------------------------

	DATABASE ../database/phreeqc.dat
	SOLUTION 1
	 pH 7 charge
	END
-------------------------------------------
Beginning of initial solution calculations.
-------------------------------------------

Initial solution 1.	

-----------------------------Solution composition------------------------------

	Elements           Molality       Moles

	Pure water     

----------------------------Description of solution----------------------------

                                       pH  =   6.997      Charge balance
                                       pe  =   4.000    
       Specific Conductance (uS/cm, 25 oC) = 0
                          Density (g/cm3)  =   0.99704
                               Volume (L)  =   1.00297
                        Activity of water  =   1.000
                           Ionic strength  =   1.006e-07
                       Mass of water (kg)  =   1.000e+00
                 Total alkalinity (eq/kg)  =   3.040e-17
                    Total carbon (mol/kg)  =   0.000e+00
                       Total CO2 (mol/kg)  =   0.000e+00
                      Temperature (deg C)  =  25.00
                  Electrical balance (eq)  =  -3.040e-17
 Percent error, 100*(Cat-|An|)/(Cat+|An|)  =  -0.00
                               Iterations  =   2
                                  Total H  = 1.110124e+02
                                  Total O  = 5.550622e+01

----------------------------Distribution of species----------------------------

                                               Log       Log       Log    mole V
   Species          Molality    Activity  Molality  Activity     Gamma   cm3/mol

   OH-             1.006e-07   1.006e-07    -6.997    -6.997    -0.000     -4.14
   H+              1.006e-07   1.006e-07    -6.997    -6.997    -0.000      0.00
   H2O             5.551e+01   1.000e+00     1.744    -0.000     0.000     18.07
H(0)          1.433e-25
   H2              7.166e-26   7.166e-26   -25.145   -25.145     0.000     28.61
O(0)          0.000e+00
   O2              0.000e+00   0.000e+00   -42.090   -42.090     0.000     30.40

------------------------------Saturation indices-------------------------------

	Phase               SI   log IAP   log K(298 K,   1 atm)

	H2(g)           -22.04    -25.14   -3.10  H2
	H2O(g)           -1.50     -0.00    1.50  H2O
	O2(g)           -39.20    -42.09   -2.89  O2


------------------
End of simulation.
------------------

------------------------------------
Reading input data for simulation 2.
------------------------------------

	USE solution 1
	REACTION_TEMPERATURE
	 5.000000
	REACTION_PRESSURE
	 0.000000
	REACTION
	 MgCl2 1
	0 0.032780 0.041370 0.048510 0.065620 0.078900 0.096270 0.130640 0.195000 0.195250 0.267670 0.282780 0.374850 0.408110 0.524760 0.551930 0.634040 0.765350 0.998510
	USER_GRAPH
	 -headings 5.oC
	-axis_titles "MgCl2 / (mol/kg H2O)" "MgCl2 molar volume / (cm3/mol)"
	10 data 0, 13.380000, 13.444186, 13.385472, 14.000000, 14.161872, 14.031992, 14.350000, 14.860383, 14.961403, 15.760000, 15.554302, 16.085995, 16.246174, 17.300000, 16.890149, 17.255539, 18.000000, 19.090000,
	20 dim d(19)
	30 read d(1), d(2), d(3), d(4), d(5), d(6), d(7), d(8), d(9), d(10), d(11), d(12), d(13), d(14), d(15), d(16), d(17), d(18), d(19),
	40 if step_no = 1 then put(rho, 10)
	50 if step_no > 1 then Vmol = (1e3 + tot("Mg") * 95.218) / (tot("Mg") * rho) - 1e3 / (tot("Mg") * get(10))
	60 if step_no = 1 then dif = 0 else dif = Vmol - d(step_no)
	62 if step_no = 1 then goto 90
	70 plot_xy tot("Mg"), d(step_no), line_w = 0, color = Yellow #aph_x tot("Mg") # dif, str$(tc), str$(pressure), str$(step_no + get(1))
	80 plot_xy tot("Mg"), Vmol, symbol = None, color = Yellow #step_no = 264 then put(step_no + get(1), 1)
	90 end
	END
-----------------------------------------
Beginning of batch-reaction calculations.
-----------------------------------------

Reaction step 1.

Using solution 1.	
Using temperature 1.	
Using pressure 1.	
Using reaction 1.	

Reaction 1.	

	  0.000e+00 moles of the following reaction have been added:

	                 Relative
	Reactant            moles

	MgCl2                1.00000

	                 Relative
	Element             moles
	Cl                   2.00000
	Mg                   1.00000

-----------------------------Solution composition------------------------------

	Elements           Molality       Moles

	Pure water     

----------------------------Description of solution----------------------------

                                       pH  =   7.365      Charge balance
                                       pe  =  -0.484      Adjusted to redox equilibrium
       Specific Conductance (uS/cm, 5 oC) = 0
                          Density (g/cm3)  =   0.99991
                               Volume (L)  =   1.00009
                        Activity of water  =   1.000
                           Ionic strength  =   4.318e-08
                       Mass of water (kg)  =   1.000e+00
                 Total alkalinity (eq/kg)  =   3.040e-17
                    Total carbon (mol/kg)  =   0.000e+00
                       Total CO2 (mol/kg)  =   0.000e+00
                      Temperature (deg C)  =   5.00
                           Pressure (atm)  =  0.01
                  Electrical balance (eq)  =  -3.040e-17
 Percent error, 100*(Cat-|An|)/(Cat+|An|)  =  -0.00
                               Iterations  =  31
                                  Total H  = 1.110124e+02
                                  Total O  = 5.550622e+01

----------------------------Distribution of species----------------------------

                                               Log       Log       Log    mole V
   Species          Molality    Activity  Molality  Activity     Gamma   cm3/mol

   OH-             4.318e-08   4.317e-08    -7.365    -7.365    -0.000     -5.55
   H+              4.318e-08   4.317e-08    -7.365    -7.365    -0.000      0.00
   H2O             5.551e+01   1.000e+00     1.744    -0.000     0.000     18.02
H(0)          3.040e-17
   H2              1.520e-17   1.520e-17   -16.818   -16.818     0.000     28.64
O(0)          0.000e+00
   O2              0.000e+00   0.000e+00   -65.662   -65.662     0.000     28.29

------------------------------Saturation indices-------------------------------

	Phase               SI   log IAP   log K(278 K,   0 atm)

	H2(g)           -13.78    -16.82   -3.03  H2
	H2O(g)           -2.06     -0.00    2.06  H2O
	O2(g)           -62.95    -65.66   -2.71  O2


Reaction step 2.

Using solution 1.	
Using temperature 1.	
Using pressure 1.	
Using reaction 1.	

Reaction 1.	

	  3.278e-02 moles of the following reaction have been added:

	                 Relative
	Reactant            moles

	MgCl2                1.00000

	                 Relative
	Element             moles
	Cl                   2.00000
	Mg                   1.00000

-----------------------------Solution composition------------------------------

	Elements           Molality       Moles

	Cl                6.556e-02   6.556e-02
	Mg                3.278e-02   3.278e-02

----------------------------Description of solution----------------------------

                                       pH  =   7.013      Charge balance
                                       pe  =  -0.124      Adjusted to redox equilibrium
       Specific Conductance (uS/cm, 5 oC) = 3937
                          Density (g/cm3)  =   1.00258
                               Volume (L)  =   1.00054
                        Activity of water  =   0.998
                           Ionic strength  =   9.834e-02
                       Mass of water (kg)  =   1.000e+00
                 Total alkalinity (eq/kg)  =   2.740e-17
                    Total carbon (mol/kg)  =   0.000e+00
                       Total CO2 (mol/kg)  =   0.000e+00
                      Temperature (deg C)  =   5.00
                           Pressure (atm)  =  0.01
                  Electrical balance (eq)  =   9.524e-16
 Percent error, 100*(Cat-|An|)/(Cat+|An|)  =   0.00
                               Iterations  =   9
                                  Total H  = 1.110124e+02
                                  Total O  = 5.550622e+01

----------------------------Distribution of species----------------------------

                                               Log       Log       Log    mole V
   Species          Molality    Activity  Molality  Activity     Gamma   cm3/mol

   H+              1.168e-07   9.699e-08    -6.932    -7.013    -0.081      0.00
   OH-             2.496e-08   1.919e-08    -7.603    -7.717    -0.114     -5.20
   H2O             5.551e+01   9.983e-01     1.744    -0.001     0.000     18.02
Cl            6.556e-02
   Cl-             6.556e-02   5.072e-02    -1.183    -1.295    -0.111     17.19
H(0)          2.851e-17
   H2              1.426e-17   1.458e-17   -16.846   -16.836     0.010     28.64
Mg            3.278e-02
   Mg+2            3.278e-02   1.375e-02    -1.484    -1.862    -0.377    -20.46
   MgOH+           9.187e-08   7.412e-08    -7.037    -7.130    -0.093     (0)  
O(0)          0.000e+00
   O2              0.000e+00   0.000e+00   -65.638   -65.628     0.010     28.29

------------------------------Saturation indices-------------------------------

	Phase               SI   log IAP   log K(278 K,   0 atm)

	H2(g)           -13.80    -16.84   -3.03  H2
	H2O(g)           -2.06     -0.00    2.06  H2O
	O2(g)           -62.91    -65.63   -2.71  O2


Reaction step 3.

Using solution 1.	
Using temperature 1.	
Using pressure 1.	
Using reaction 1.	

Reaction 1.	

	  4.137e-02 moles of the following reaction have been added:

	                 Relative
	Reactant            moles

	MgCl2                1.00000

	                 Relative
	Element             moles
	Cl                   2.00000
	Mg                   1.00000

-----------------------------Solution composition------------------------------

	Elements           Molality       Moles

	Cl                8.274e-02   8.274e-02
	Mg                4.137e-02   4.137e-02

----------------------------Description of solution----------------------------

                                       pH  =   6.982      Charge balance
                                       pe  =  -0.099      Adjusted to redox equilibrium
       Specific Conductance (uS/cm, 5 oC) = 4885
                          Density (g/cm3)  =   1.00327
                               Volume (L)  =   1.00067
                        Activity of water  =   0.998
                           Ionic strength  =   1.241e-01
                       Mass of water (kg)  =   1.000e+00
                 Total alkalinity (eq/kg)  =   2.864e-17
                    Total carbon (mol/kg)  =   0.000e+00
                       Total CO2 (mol/kg)  =   0.000e+00
                      Temperature (deg C)  =   5.00
                           Pressure (atm)  =  0.01
                  Electrical balance (eq)  =   9.234e-15
 Percent error, 100*(Cat-|An|)/(Cat+|An|)  =   0.00
                               Iterations  =   9
                                  Total H  = 1.110124e+02
                                  Total O  = 5.550622e+01

----------------------------Distribution of species----------------------------

                                               Log       Log       Log    mole V
   Species          Molality    Activity  Molality  Activity     Gamma   cm3/mol

   H+              1.271e-07   1.043e-07    -6.896    -6.982    -0.086      0.00
   OH-             2.374e-08   1.783e-08    -7.625    -7.749    -0.124     -5.14
   H2O             5.551e+01   9.979e-01     1.744    -0.001     0.000     18.02
Cl            8.274e-02
   Cl-             8.274e-02   6.264e-02    -1.082    -1.203    -0.121     17.22
H(0)          2.922e-17
   H2              1.461e-17   1.503e-17   -16.835   -16.823     0.012     28.64
Mg            4.137e-02
   Mg+2            4.137e-02   1.638e-02    -1.383    -1.786    -0.402    -20.40
   MgOH+           1.033e-07   8.211e-08    -6.986    -7.086    -0.100     (0)  
O(0)          0.000e+00
   O2              0.000e+00   0.000e+00   -65.667   -65.655     0.012     28.29

------------------------------Saturation indices-------------------------------

	Phase               SI   log IAP   log K(278 K,   0 atm)

	H2(g)           -13.79    -16.82   -3.03  H2
	H2O(g)           -2.06     -0.00    2.06  H2O
	O2(g)           -62.94    -65.65   -2.71  O2


Reaction step 4.

Using solution 1.	
Using temperature 1.	
Using pressure 1.	
Using reaction 1.	

Reaction 1.	

	  4.851e-02 moles of the following reaction have been added:

	                 Relative
	Reactant            moles

	MgCl2                1.00000

	                 Relative
	Element             moles
	Cl                   2.00000
	Mg                   1.00000

-----------------------------Solution composition------------------------------

	Elements           Molality       Moles

	Cl                9.702e-02   9.702e-02
	Mg                4.851e-02   4.851e-02

----------------------------Description of solution----------------------------

                                       pH  =   6.959      Charge balance
                                       pe  =  -0.053      Adjusted to redox equilibrium
       Specific Conductance (uS/cm, 5 oC) = 5662
                          Density (g/cm3)  =   1.00384
                               Volume (L)  =   1.00077
                        Activity of water  =   0.998
                           Ionic strength  =   1.455e-01
                       Mass of water (kg)  =   1.000e+00
                 Total alkalinity (eq/kg)  =   2.975e-17
                    Total carbon (mol/kg)  =   0.000e+00
                       Total CO2 (mol/kg)  =   0.000e+00
                      Temperature (deg C)  =   5.00
                           Pressure (atm)  =  0.01
                  Electrical balance (eq)  =   9.428e-13
 Percent error, 100*(Cat-|An|)/(Cat+|An|)  =   0.00
                               Iterations  =  18
                                  Total H  = 1.110124e+02
                                  Total O  = 5.550622e+01

----------------------------Distribution of species----------------------------

                                               Log       Log       Log    mole V
   Species          Molality    Activity  Molality  Activity     Gamma   cm3/mol

   H+              1.348e-07   1.098e-07    -6.870    -6.959    -0.089      0.00
   OH-             2.292e-08   1.693e-08    -7.640    -7.771    -0.131     -5.10
   H2O             5.551e+01   9.975e-01     1.744    -0.001     0.000     18.02
Cl            9.702e-02
   Cl-             9.702e-02   7.234e-02    -1.013    -1.141    -0.128     17.25
H(0)          2.610e-17
   H2              1.305e-17   1.350e-17   -16.884   -16.870     0.015     28.64
Mg            4.851e-02
   Mg+2            4.851e-02   1.848e-02    -1.314    -1.733    -0.419    -20.36
   MgOH+           1.119e-07   8.797e-08    -6.951    -7.056    -0.104     (0)  
O(0)          0.000e+00
   O2              0.000e+00   0.000e+00   -65.576   -65.561     0.015     28.29

------------------------------Saturation indices-------------------------------

	Phase               SI   log IAP   log K(278 K,   0 atm)

	H2(g)           -13.84    -16.87   -3.03  H2
	H2O(g)           -2.06     -0.00    2.06  H2O
	O2(g)           -62.85    -65.56   -2.71  O2


Reaction step 5.

Using solution 1.	
Using temperature 1.	
Using pressure 1.	
Using reaction 1.	

Reaction 1.	

	  6.562e-02 moles of the following reaction have been added:

	                 Relative
	Reactant            moles

	MgCl2                1.00000

	                 Relative
	Element             moles
	Cl                   2.00000
	Mg                   1.00000

-----------------------------Solution composition------------------------------

	Elements           Molality       Moles

	Cl                1.312e-01   1.312e-01
	Mg                6.562e-02   6.562e-02

----------------------------Description of solution----------------------------

                                       pH  =   6.915      Charge balance
                                       pe  =  -0.049      Adjusted to redox equilibrium
       Specific Conductance (uS/cm, 5 oC) = 7491
                          Density (g/cm3)  =   1.00522
                               Volume (L)  =   1.00103
                        Activity of water  =   0.997
                           Ionic strength  =   1.969e-01
                       Mass of water (kg)  =   1.000e+00
                 Total alkalinity (eq/kg)  =   3.411e-17
                    Total carbon (mol/kg)  =   0.000e+00
                       Total CO2 (mol/kg)  =   0.000e+00
                      Temperature (deg C)  =   5.00
                           Pressure (atm)  =  0.01
                  Electrical balance (eq)  =   3.133e-13
 Percent error, 100*(Cat-|An|)/(Cat+|An|)  =   0.00
                               Iterations  =   9
                                  Total H  = 1.110124e+02
                                  Total O  = 5.550622e+01

----------------------------Distribution of species----------------------------

                                               Log       Log       Log    mole V
   Species          Molality    Activity  Molality  Activity     Gamma   cm3/mol

   H+              1.513e-07   1.215e-07    -6.820    -6.915    -0.095      0.00
   OH-             2.138e-08   1.529e-08    -7.670    -7.816    -0.146     -4.99
   H2O             5.551e+01   9.967e-01     1.744    -0.001     0.000     18.02
Cl            1.312e-01
   Cl-             1.312e-01   9.496e-02    -0.882    -1.022    -0.141     17.30
H(0)          3.099e-17
   H2              1.550e-17   1.622e-17   -16.810   -16.790     0.020     28.64
Mg            6.562e-02
   Mg+2            6.562e-02   2.331e-02    -1.183    -1.633    -0.450    -20.28
   MgOH+           1.300e-07   1.002e-07    -6.886    -6.999    -0.113     (0)  
O(0)          0.000e+00
   O2              0.000e+00   0.000e+00   -65.741   -65.721     0.020     28.29

------------------------------Saturation indices-------------------------------

	Phase               SI   log IAP   log K(278 K,   0 atm)

	H2(g)           -13.76    -16.79   -3.03  H2
	H2O(g)           -2.06     -0.00    2.06  H2O
	O2(g)           -63.01    -65.72   -2.71  O2


Reaction step 6.

Using solution 1.	
Using temperature 1.	
Using pressure 1.	
Using reaction 1.	

Reaction 1.	

	  7.890e-02 moles of the following reaction have been added:

	                 Relative
	Reactant            moles

	MgCl2                1.00000

	                 Relative
	Element             moles
	Cl                   2.00000
	Mg                   1.00000

-----------------------------Solution composition------------------------------

	Elements           Molality       Moles

	Cl                1.578e-01   1.578e-01
	Mg                7.890e-02   7.890e-02

----------------------------Description of solution----------------------------

                                       pH  =   6.887      Charge balance
                                       pe  =  -0.041      Adjusted to redox equilibrium
       Specific Conductance (uS/cm, 5 oC) = 8888
                          Density (g/cm3)  =   1.00628
                               Volume (L)  =   1.00123
                        Activity of water  =   0.996
                           Ionic strength  =   2.367e-01
                       Mass of water (kg)  =   1.000e+00
                 Total alkalinity (eq/kg)  =   3.209e-17
                    Total carbon (mol/kg)  =   0.000e+00
                       Total CO2 (mol/kg)  =   0.000e+00
                      Temperature (deg C)  =   5.00
                           Pressure (atm)  =  0.01
                  Electrical balance (eq)  =   1.577e-17
 Percent error, 100*(Cat-|An|)/(Cat+|An|)  =   0.00
                               Iterations  =  23
                                  Total H  = 1.110124e+02
                                  Total O  = 5.550622e+01

----------------------------Distribution of species----------------------------

                                               Log       Log       Log    mole V
   Species          Molality    Activity  Molality  Activity     Gamma   cm3/mol

   H+              1.629e-07   1.296e-07    -6.788    -6.887    -0.099      0.00
   OH-             2.045e-08   1.432e-08    -7.689    -7.844    -0.155     -4.91
   H2O             5.551e+01   9.960e-01     1.744    -0.002     0.000     18.02
Cl            1.578e-01
   Cl-             1.578e-01   1.121e-01    -0.802    -0.951    -0.149     17.34
H(0)          3.376e-17
   H2              1.688e-17   1.782e-17   -16.773   -16.749     0.024     28.64
Mg            7.890e-02
   Mg+2            7.890e-02   2.693e-02    -1.103    -1.570    -0.467    -20.23
   MgOH+           1.424e-07   1.084e-07    -6.846    -6.965    -0.119     (0)  
O(0)          0.000e+00
   O2              0.000e+00   0.000e+00   -65.828   -65.804     0.024     28.29

------------------------------Saturation indices-------------------------------

	Phase               SI   log IAP   log K(278 K,   0 atm)

	H2(g)           -13.71    -16.75   -3.03  H2
	H2O(g)           -2.06     -0.00    2.06  H2O
	O2(g)           -63.09    -65.80   -2.71  O2


Reaction step 7.

Using solution 1.	
Using temperature 1.	
Using pressure 1.	
Using reaction 1.	

Reaction 1.	

	  9.627e-02 moles of the following reaction have been added:

	                 Relative
	Reactant            moles

	MgCl2                1.00000

	                 Relative
	Element             moles
	Cl                   2.00000
	Mg                   1.00000

-----------------------------Solution composition------------------------------

	Elements           Molality       Moles

	Cl                1.925e-01   1.925e-01
	Mg                9.627e-02   9.627e-02

----------------------------Description of solution----------------------------

                                       pH  =   6.856      Charge balance
                                       pe  =   0.043      Adjusted to redox equilibrium
       Specific Conductance (uS/cm, 5 oC) = 10697
                          Density (g/cm3)  =   1.00766
                               Volume (L)  =   1.00149
                        Activity of water  =   0.995
                           Ionic strength  =   2.888e-01
                       Mass of water (kg)  =   1.000e+00
                 Total alkalinity (eq/kg)  =   2.575e-15
                    Total carbon (mol/kg)  =   0.000e+00
                       Total CO2 (mol/kg)  =   0.000e+00
                      Temperature (deg C)  =   5.00
                           Pressure (atm)  =  0.01
                  Electrical balance (eq)  =   2.045e-10
 Percent error, 100*(Cat-|An|)/(Cat+|An|)  =   0.00
                               Iterations  =  25
                                  Total H  = 1.110124e+02
                                  Total O  = 5.550622e+01

----------------------------Distribution of species----------------------------

                                               Log       Log       Log    mole V
   Species          Molality    Activity  Molality  Activity     Gamma   cm3/mol

   H+              1.768e-07   1.394e-07    -6.753    -6.856    -0.103      0.00
   OH-             1.945e-08   1.331e-08    -7.711    -7.876    -0.165     -4.82
   H2O             5.551e+01   9.951e-01     1.744    -0.002     0.000     18.02
Cl            1.925e-01
   Cl-             1.925e-01   1.340e-01    -0.715    -0.873    -0.158     17.38
H(0)          2.618e-17
   H2              1.309e-17   1.399e-17   -16.883   -16.854     0.029     28.64
Mg            9.627e-02
   Mg+2            9.627e-02   3.160e-02    -1.017    -1.500    -0.484    -20.17
   MgOH+           1.573e-07   1.182e-07    -6.803    -6.927    -0.124     (0)  
O(0)          0.000e+00
   O2              0.000e+00   0.000e+00   -65.623   -65.594     0.029     28.29

------------------------------Saturation indices-------------------------------

	Phase               SI   log IAP   log K(278 K,   0 atm)

	H2(g)           -13.82    -16.85   -3.03  H2
	H2O(g)           -2.06     -0.00    2.06  H2O
	O2(g)           -62.88    -65.59   -2.71  O2


Reaction step 8.

Using solution 1.	
Using temperature 1.	
Using pressure 1.	
Using reaction 1.	

Reaction 1.	

	  1.306e-01 moles of the following reaction have been added:

	                 Relative
	Reactant            moles

	MgCl2                1.00000

	                 Relative
	Element             moles
	Cl                   2.00000
	Mg                   1.00000

-----------------------------Solution composition------------------------------

	Elements           Molality       Moles

	Cl                2.613e-01   2.613e-01
	Mg                1.306e-01   1.306e-01

----------------------------Description of solution----------------------------

                                       pH  =   6.804      Charge balance
                                       pe  =   0.049      Adjusted to redox equilibrium
       Specific Conductance (uS/cm, 5 oC) = 14139
                          Density (g/cm3)  =   1.01039
                               Volume (L)  =   1.00203
                        Activity of water  =   0.993
                           Ionic strength  =   3.919e-01
                       Mass of water (kg)  =   1.000e+00
                 Total alkalinity (eq/kg)  =   7.679e-17
                    Total carbon (mol/kg)  =   0.000e+00
                       Total CO2 (mol/kg)  =   0.000e+00
                      Temperature (deg C)  =   5.00
                           Pressure (atm)  =  0.01
                  Electrical balance (eq)  =   2.639e-12
 Percent error, 100*(Cat-|An|)/(Cat+|An|)  =   0.00
                               Iterations  =  16
                                  Total H  = 1.110124e+02
                                  Total O  = 5.550622e+01

----------------------------Distribution of species----------------------------

                                               Log       Log       Log    mole V
   Species          Molality    Activity  Molality  Activity     Gamma   cm3/mol

   H+              2.018e-07   1.569e-07    -6.695    -6.804    -0.109      0.00
   OH-             1.789e-08   1.180e-08    -7.748    -7.928    -0.181     -4.63
   H2O             5.551e+01   9.933e-01     1.744    -0.003     0.000     18.02
Cl            2.613e-01
   Cl-             2.613e-01   1.761e-01    -0.583    -0.754    -0.171     17.46
H(0)          3.145e-17
   H2              1.573e-17   1.721e-17   -16.803   -16.764     0.039     28.64
Mg            1.306e-01
   Mg+2            1.306e-01   4.081e-02    -0.884    -1.389    -0.505    -20.06
   MgOH+           1.839e-07   1.353e-07    -6.735    -6.869    -0.133     (0)  
O(0)          0.000e+00
   O2              0.000e+00   0.000e+00   -65.815   -65.776     0.039     28.29

------------------------------Saturation indices-------------------------------

	Phase               SI   log IAP   log K(278 K,   0 atm)

	H2(g)           -13.73    -16.76   -3.03  H2
	H2O(g)           -2.06     -0.00    2.06  H2O
	O2(g)           -63.06    -65.78   -2.71  O2


Reaction step 9.

WARNING: Maximum iterations exceeded, 100

WARNING: Numerical method failed with this set of convergence parameters.

WARNING: Trying smaller step size, pe step size 10, 5 ... 

Using solution 1.	
Using temperature 1.	
Using pressure 1.	
Using reaction 1.	

Reaction 1.	

	  1.950e-01 moles of the following reaction have been added:

	                 Relative
	Reactant            moles

	MgCl2                1.00000

	                 Relative
	Element             moles
	Cl                   2.00000
	Mg                   1.00000

-----------------------------Solution composition------------------------------

	Elements           Molality       Moles

	Cl                3.900e-01   3.900e-01
	Mg                1.950e-01   1.950e-01

----------------------------Description of solution----------------------------

                                       pH  =   6.730      Charge balance
                                       pe  =  12.035      Adjusted to redox equilibrium
       Specific Conductance (uS/cm, 5 oC) = 19870
                          Density (g/cm3)  =   1.01546
                               Volume (L)  =   1.00306
                        Activity of water  =   0.990
                           Ionic strength  =   5.850e-01
                       Mass of water (kg)  =   1.000e+00
                 Total alkalinity (eq/kg)  =   6.080e-16
                    Total carbon (mol/kg)  =   0.000e+00
                       Total CO2 (mol/kg)  =   0.000e+00
                      Temperature (deg C)  =   5.00
                           Pressure (atm)  =  0.01
                  Electrical balance (eq)  =   1.687e-11
 Percent error, 100*(Cat-|An|)/(Cat+|An|)  =   0.00
                               Iterations  =  92
                                  Total H  = 1.110124e+02
                                  Total O  = 5.550622e+01

----------------------------Distribution of species----------------------------

                                               Log       Log       Log    mole V
   Species          Molality    Activity  Molality  Activity     Gamma   cm3/mol

   H+              2.437e-07   1.863e-07    -6.613    -6.730    -0.117      0.00
   OH-             1.577e-08   9.906e-09    -7.802    -8.004    -0.202     -4.32
   H2O             5.551e+01   9.901e-01     1.744    -0.004     0.000     18.02
Cl            3.900e-01
   Cl-             3.900e-01   2.526e-01    -0.409    -0.598    -0.189     17.58
H(0)          0.000e+00
   H2              0.000e+00   0.000e+00   -40.646   -40.587     0.058     28.64
Mg            1.950e-01
   Mg+2            1.950e-01   5.870e-02    -0.710    -1.231    -0.521    -19.91
   MgOH+           2.279e-07   1.635e-07    -6.642    -6.787    -0.144     (0)  
O(0)          1.288e-18
   O2              6.440e-19   7.369e-19   -18.191   -18.133     0.058     28.29

------------------------------Saturation indices-------------------------------

	Phase               SI   log IAP   log K(278 K,   0 atm)

	H2(g)           -37.55    -40.59   -3.03  H2
	H2O(g)           -2.06     -0.00    2.06  H2O
	O2(g)           -15.42    -18.13   -2.71  O2


Reaction step 10.

Using solution 1.	
Using temperature 1.	
Using pressure 1.	
Using reaction 1.	

Reaction 1.	

	  1.953e-01 moles of the following reaction have been added:

	                 Relative
	Reactant            moles

	MgCl2                1.00000

	                 Relative
	Element             moles
	Cl                   2.00000
	Mg                   1.00000

-----------------------------Solution composition------------------------------

	Elements           Molality       Moles

	Cl                3.905e-01   3.905e-01
	Mg                1.953e-01   1.953e-01

----------------------------Description of solution----------------------------

                                       pH  =   6.730      Charge balance
                                       pe  =   0.180      Adjusted to redox equilibrium
       Specific Conductance (uS/cm, 5 oC) = 19891
                          Density (g/cm3)  =   1.01548
                               Volume (L)  =   1.00306
                        Activity of water  =   0.990
                           Ionic strength  =   5.857e-01
                       Mass of water (kg)  =   1.000e+00
                 Total alkalinity (eq/kg)  =   1.096e-15
                    Total carbon (mol/kg)  =   0.000e+00
                       Total CO2 (mol/kg)  =   0.000e+00
                      Temperature (deg C)  =   5.00
                           Pressure (atm)  =  0.01
                  Electrical balance (eq)  =   3.035e-11
 Percent error, 100*(Cat-|An|)/(Cat+|An|)  =   0.00
                               Iterations  =  30
                                  Total H  = 1.110124e+02
                                  Total O  = 5.550622e+01

----------------------------Distribution of species----------------------------

                                               Log       Log       Log    mole V
   Species          Molality    Activity  Molality  Activity     Gamma   cm3/mol

   H+              2.439e-07   1.864e-07    -6.613    -6.730    -0.117      0.00
   OH-             1.577e-08   9.900e-09    -7.802    -8.004    -0.202     -4.31
   H2O             5.551e+01   9.900e-01     1.744    -0.004     0.000     18.02
Cl            3.905e-01
   Cl-             3.905e-01   2.529e-01    -0.408    -0.597    -0.189     17.58
H(0)          2.319e-17
   H2              1.160e-17   1.327e-17   -16.936   -16.877     0.059     28.64
Mg            1.953e-01
   Mg+2            1.952e-01   5.878e-02    -0.709    -1.231    -0.521    -19.91
   MgOH+           2.281e-07   1.636e-07    -6.642    -6.786    -0.144     (0)  
O(0)          0.000e+00
   O2              0.000e+00   0.000e+00   -65.612   -65.553     0.059     28.29

------------------------------Saturation indices-------------------------------

	Phase               SI   log IAP   log K(278 K,   0 atm)

	H2(g)           -13.84    -16.88   -3.03  H2
	H2O(g)           -2.06     -0.00    2.06  H2O
	O2(g)           -62.84    -65.55   -2.71  O2


Reaction step 11.

Using solution 1.	
Using temperature 1.	
Using pressure 1.	
Using reaction 1.	

Reaction 1.	

	  2.677e-01 moles of the following reaction have been added:

	                 Relative
	Reactant            moles

	MgCl2                1.00000

	                 Relative
	Element             moles
	Cl                   2.00000
	Mg                   1.00000

-----------------------------Solution composition------------------------------

	Elements           Molality       Moles

	Cl                5.353e-01   5.353e-01
	Mg                2.677e-01   2.677e-01

----------------------------Description of solution----------------------------

                                       pH  =   6.663      Charge balance
                                       pe  =  12.628      Adjusted to redox equilibrium
       Specific Conductance (uS/cm, 5 oC) = 25626
                          Density (g/cm3)  =   1.02113
                               Volume (L)  =   1.00427
                        Activity of water  =   0.986
                           Ionic strength  =   8.030e-01
                       Mass of water (kg)  =   1.000e+00
                 Total alkalinity (eq/kg)  =   6.034e-17
                    Total carbon (mol/kg)  =   0.000e+00
                       Total CO2 (mol/kg)  =   0.000e+00
                      Temperature (deg C)  =   5.00
                           Pressure (atm)  =  0.01
                  Electrical balance (eq)  =   1.258e-14
 Percent error, 100*(Cat-|An|)/(Cat+|An|)  =   0.00
                               Iterations  =  17
                                  Total H  = 1.110124e+02
                                  Total O  = 5.550622e+01

----------------------------Distribution of species----------------------------

                                               Log       Log       Log    mole V
   Species          Molality    Activity  Molality  Activity     Gamma   cm3/mol

   H+              2.877e-07   2.172e-07    -6.541    -6.663    -0.122      0.00
   OH-             1.402e-08   8.466e-09    -7.853    -8.072    -0.219     -3.97
   H2O             5.551e+01   9.863e-01     1.744    -0.006     0.000     18.02
Cl            5.353e-01
   Cl-             5.353e-01   3.366e-01    -0.271    -0.473    -0.202     17.70
H(0)          0.000e+00
   H2              0.000e+00   0.000e+00   -41.721   -41.640     0.080     28.64
Mg            2.677e-01
   Mg+2            2.677e-01   8.086e-02    -0.572    -1.092    -0.520    -19.77
   MgOH+           2.737e-07   1.924e-07    -6.563    -6.716    -0.153     (0)  
O(0)          1.551e-16
   O2              7.755e-17   9.330e-17   -16.110   -16.030     0.080     28.29

------------------------------Saturation indices-------------------------------

	Phase               SI   log IAP   log K(278 K,   0 atm)

	H2(g)           -38.61    -41.64   -3.03  H2
	H2O(g)           -2.06     -0.01    2.06  H2O
	O2(g)           -13.32    -16.03   -2.71  O2


Reaction step 12.

Using solution 1.	
Using temperature 1.	
Using pressure 1.	
Using reaction 1.	

Reaction 1.	

	  2.828e-01 moles of the following reaction have been added:

	                 Relative
	Reactant            moles

	MgCl2                1.00000

	                 Relative
	Element             moles
	Cl                   2.00000
	Mg                   1.00000

-----------------------------Solution composition------------------------------

	Elements           Molality       Moles

	Cl                5.656e-01   5.656e-01
	Mg                2.828e-01   2.828e-01

----------------------------Description of solution----------------------------

                                       pH  =   6.651      Charge balance
                                       pe  =  12.235      Adjusted to redox equilibrium
       Specific Conductance (uS/cm, 5 oC) = 26674
                          Density (g/cm3)  =   1.02230
                               Volume (L)  =   1.00453
                        Activity of water  =   0.986
                           Ionic strength  =   8.483e-01
                       Mass of water (kg)  =   1.000e+00
                 Total alkalinity (eq/kg)  =   5.532e-15
                    Total carbon (mol/kg)  =   0.000e+00
                       Total CO2 (mol/kg)  =   0.000e+00
                      Temperature (deg C)  =   5.00
                           Pressure (atm)  =  0.01
                  Electrical balance (eq)  =   5.449e-11
 Percent error, 100*(Cat-|An|)/(Cat+|An|)  =   0.00
                               Iterations  =  27
                                  Total H  = 1.110124e+02
                                  Total O  = 5.550622e+01

----------------------------Distribution of species----------------------------

                                               Log       Log       Log    mole V
   Species          Molality    Activity  Molality  Activity     Gamma   cm3/mol

   H+              2.967e-07   2.234e-07    -6.528    -6.651    -0.123      0.00
   OH-             1.371e-08   8.221e-09    -7.863    -8.085    -0.222     -3.91
   H2O             5.551e+01   9.856e-01     1.744    -0.006     0.000     18.02
Cl            5.656e-01
   Cl-             5.656e-01   3.539e-01    -0.248    -0.451    -0.204     17.72
H(0)          0.000e+00
   H2              0.000e+00   0.000e+00   -40.914   -40.829     0.085     28.64
Mg            2.828e-01
   Mg+2            2.828e-01   8.581e-02    -0.549    -1.066    -0.518    -19.74
   MgOH+           2.830e-07   1.983e-07    -6.548    -6.703    -0.154     (0)  
O(0)          3.650e-18
   O2              1.825e-18   2.219e-18   -17.739   -17.654     0.085     28.29

------------------------------Saturation indices-------------------------------

	Phase               SI   log IAP   log K(278 K,   0 atm)

	H2(g)           -37.79    -40.83   -3.03  H2
	H2O(g)           -2.06     -0.01    2.06  H2O
	O2(g)           -14.94    -17.65   -2.71  O2


Reaction step 13.

Using solution 1.	
Using temperature 1.	
Using pressure 1.	
Using reaction 1.	

Reaction 1.	

	  3.749e-01 moles of the following reaction have been added:

	                 Relative
	Reactant            moles

	MgCl2                1.00000

	                 Relative
	Element             moles
	Cl                   2.00000
	Mg                   1.00000

-----------------------------Solution composition------------------------------

	Elements           Molality       Moles

	Cl                7.497e-01   7.497e-01
	Mg                3.749e-01   3.749e-01

----------------------------Description of solution----------------------------

                                       pH  =   6.582      Charge balance
                                       pe  =  12.823      Adjusted to redox equilibrium
       Specific Conductance (uS/cm, 5 oC) = 32704
                          Density (g/cm3)  =   1.02939
                               Volume (L)  =   1.00612
                        Activity of water  =   0.981
                           Ionic strength  =   1.125e+00
                       Mass of water (kg)  =   1.000e+00
                 Total alkalinity (eq/kg)  =   5.621e-15
                    Total carbon (mol/kg)  =   0.000e+00
                       Total CO2 (mol/kg)  =   0.000e+00
                      Temperature (deg C)  =   5.00
                           Pressure (atm)  =  0.01
                  Electrical balance (eq)  =   8.529e-12
 Percent error, 100*(Cat-|An|)/(Cat+|An|)  =   0.00
                               Iterations  =  33
                                  Total H  = 1.110124e+02
                                  Total O  = 5.550622e+01

----------------------------Distribution of species----------------------------

                                               Log       Log       Log    mole V
   Species          Molality    Activity  Molality  Activity     Gamma   cm3/mol

   H+              3.510e-07   2.616e-07    -6.455    -6.582    -0.128      0.00
   OH-             1.207e-08   6.989e-09    -7.918    -8.156    -0.237     -3.50
   H2O             5.551e+01   9.809e-01     1.744    -0.008     0.000     18.02
Cl            7.497e-01
   Cl-             7.497e-01   4.585e-01    -0.125    -0.339    -0.214     17.85
H(0)          0.000e+00
   H2              0.000e+00   0.000e+00   -41.980   -41.868     0.112     28.64
Mg            3.749e-01
   Mg+2            3.748e-01   1.189e-01    -0.426    -0.925    -0.499    -19.59
   MgOH+           3.389e-07   2.336e-07    -6.470    -6.632    -0.162     (0)  
O(0)          4.059e-16
   O2              2.030e-16   2.629e-16   -15.693   -15.580     0.112     28.29

------------------------------Saturation indices-------------------------------

	Phase               SI   log IAP   log K(278 K,   0 atm)

	H2(g)           -38.83    -41.87   -3.03  H2
	H2O(g)           -2.07     -0.01    2.06  H2O
	O2(g)           -12.87    -15.58   -2.71  O2


Reaction step 14.

Using solution 1.	
Using temperature 1.	
Using pressure 1.	
Using reaction 1.	

Reaction 1.	

	  4.081e-01 moles of the following reaction have been added:

	                 Relative
	Reactant            moles

	MgCl2                1.00000

	                 Relative
	Element             moles
	Cl                   2.00000
	Mg                   1.00000

-----------------------------Solution composition------------------------------

	Elements           Molality       Moles

	Cl                8.162e-01   8.162e-01
	Mg                4.081e-01   4.081e-01

----------------------------Description of solution----------------------------

                                       pH  =   6.560      Charge balance
                                       pe  =  13.218      Adjusted to redox equilibrium
       Specific Conductance (uS/cm, 5 oC) = 34775
                          Density (g/cm3)  =   1.03193
                               Volume (L)  =   1.00672
                        Activity of water  =   0.979
                           Ionic strength  =   1.224e+00
                       Mass of water (kg)  =   1.000e+00
                 Total alkalinity (eq/kg)  =   6.072e-15
                    Total carbon (mol/kg)  =   0.000e+00
                       Total CO2 (mol/kg)  =   0.000e+00
                      Temperature (deg C)  =   5.00
                           Pressure (atm)  =  0.01
                  Electrical balance (eq)  =   8.456e-12
 Percent error, 100*(Cat-|An|)/(Cat+|An|)  =   0.00
                               Iterations  =  21
                                  Total H  = 1.110124e+02
                                  Total O  = 5.550622e+01

----------------------------Distribution of species----------------------------

                                               Log       Log       Log    mole V
   Species          Molality    Activity  Molality  Activity     Gamma   cm3/mol

   H+              3.708e-07   2.755e-07    -6.431    -6.560    -0.129      0.00
   OH-             1.156e-08   6.625e-09    -7.937    -8.179    -0.242     -3.35
   H2O             5.551e+01   9.792e-01     1.744    -0.009     0.000     18.02
Cl            8.162e-01
   Cl-             8.162e-01   4.961e-01    -0.088    -0.304    -0.216     17.90
H(0)          0.000e+00
   H2              0.000e+00   0.000e+00   -42.736   -42.614     0.122     28.64
Mg            4.081e-01
   Mg+2            4.081e-01   1.323e-01    -0.389    -0.878    -0.489    -19.54
   MgOH+           3.592e-07   2.464e-07    -6.445    -6.608    -0.164     (0)  
O(0)          1.227e-14
   O2              6.137e-15   8.136e-15   -14.212   -14.090     0.122     28.29

------------------------------Saturation indices-------------------------------

	Phase               SI   log IAP   log K(278 K,   0 atm)

	H2(g)           -39.58    -42.61   -3.03  H2
	H2O(g)           -2.07     -0.01    2.06  H2O
	O2(g)           -11.37    -14.09   -2.71  O2


Reaction step 15.

Using solution 1.	
Using temperature 1.	
Using pressure 1.	
Using reaction 1.	

Reaction 1.	

	  5.248e-01 moles of the following reaction have been added:

	                 Relative
	Reactant            moles

	MgCl2                1.00000

	                 Relative
	Element             moles
	Cl                   2.00000
	Mg                   1.00000

-----------------------------Solution composition------------------------------

	Elements           Molality       Moles

	Cl                1.050e+00   1.050e+00
	Mg                5.248e-01   5.248e-01

----------------------------Description of solution----------------------------

                                       pH  =   6.488      Charge balance
                                       pe  =   0.339      Adjusted to redox equilibrium
       Specific Conductance (uS/cm, 5 oC) = 41836
                          Density (g/cm3)  =   1.04076
                               Volume (L)  =   1.00885
                        Activity of water  =   0.973
                           Ionic strength  =   1.574e+00
                       Mass of water (kg)  =   1.000e+00
                 Total alkalinity (eq/kg)  =   2.731e-17
                    Total carbon (mol/kg)  =   0.000e+00
                       Total CO2 (mol/kg)  =   0.000e+00
                      Temperature (deg C)  =   5.00
                           Pressure (atm)  =  0.01
                  Electrical balance (eq)  =  -3.210e-14
 Percent error, 100*(Cat-|An|)/(Cat+|An|)  =  -0.00
                               Iterations  =  25
                                  Total H  = 1.110124e+02
                                  Total O  = 5.550622e+01

----------------------------Distribution of species----------------------------

                                               Log       Log       Log    mole V
   Species          Molality    Activity  Molality  Activity     Gamma   cm3/mol

   H+              4.417e-07   3.255e-07    -6.355    -6.488    -0.133      0.00
   OH-             1.003e-08   5.574e-09    -7.999    -8.254    -0.255     -2.85
   H2O             5.551e+01   9.732e-01     1.744    -0.012     0.000     18.02
Cl            1.050e+00
   Cl-             1.050e+00   6.279e-01     0.021    -0.202    -0.223     18.04
H(0)          2.716e-17
   H2              1.358e-17   1.951e-17   -16.867   -16.710     0.157     28.64
Mg            5.248e-01
   Mg+2            5.248e-01   1.864e-01    -0.280    -0.730    -0.449    -19.38
   MgOH+           4.317e-07   2.921e-07    -6.365    -6.535    -0.170     (0)  
O(0)          0.000e+00
   O2              0.000e+00   0.000e+00   -66.060   -65.903     0.157     28.29

------------------------------Saturation indices-------------------------------

	Phase               SI   log IAP   log K(278 K,   0 atm)

	H2(g)           -13.68    -16.71   -3.03  H2
	H2O(g)           -2.07     -0.01    2.06  H2O
	O2(g)           -63.19    -65.90   -2.71  O2


Reaction step 16.

Using solution 1.	
Using temperature 1.	
Using pressure 1.	
Using reaction 1.	

Reaction 1.	

	  5.519e-01 moles of the following reaction have been added:

	                 Relative
	Reactant            moles

	MgCl2                1.00000

	                 Relative
	Element             moles
	Cl                   2.00000
	Mg                   1.00000

-----------------------------Solution composition------------------------------

	Elements           Molality       Moles

	Cl                1.104e+00   1.104e+00
	Mg                5.519e-01   5.519e-01

----------------------------Description of solution----------------------------

                                       pH  =   6.472      Charge balance
                                       pe  =  12.711      Adjusted to redox equilibrium
       Specific Conductance (uS/cm, 5 oC) = 43468
                          Density (g/cm3)  =   1.04280
                               Volume (L)  =   1.00936
                        Activity of water  =   0.972
                           Ionic strength  =   1.656e+00
                       Mass of water (kg)  =   1.000e+00
                 Total alkalinity (eq/kg)  =   3.135e-14
                    Total carbon (mol/kg)  =   0.000e+00
                       Total CO2 (mol/kg)  =   0.000e+00
                      Temperature (deg C)  =   5.00
                           Pressure (atm)  =  0.01
                  Electrical balance (eq)  =   3.650e-12
 Percent error, 100*(Cat-|An|)/(Cat+|An|)  =   0.00
                               Iterations  =  20
                                  Total H  = 1.110124e+02
                                  Total O  = 5.550622e+01

----------------------------Distribution of species----------------------------

                                               Log       Log       Log    mole V
   Species          Molality    Activity  Molality  Activity     Gamma   cm3/mol

   H+              4.588e-07   3.375e-07    -6.338    -6.472    -0.133      0.00
   OH-             9.722e-09   5.368e-09    -8.012    -8.270    -0.258     -2.74
   H2O             5.551e+01   9.719e-01     1.744    -0.012     0.000     18.02
Cl            1.104e+00
   Cl-             1.104e+00   6.587e-01     0.043    -0.181    -0.224     18.07
H(0)          0.000e+00
   H2              0.000e+00   0.000e+00   -41.588   -41.422     0.166     28.64
Mg            5.519e-01
   Mg+2            5.519e-01   2.008e-01    -0.258    -0.697    -0.439    -19.34
   MgOH+           4.491e-07   3.030e-07    -6.348    -6.519    -0.171     (0)  
O(0)          4.539e-17
   O2              2.270e-17   3.323e-17   -16.644   -16.478     0.166     28.29

------------------------------Saturation indices-------------------------------

	Phase               SI   log IAP   log K(278 K,   0 atm)

	H2(g)           -38.39    -41.42   -3.03  H2
	H2O(g)           -2.07     -0.01    2.06  H2O
	O2(g)           -13.76    -16.48   -2.71  O2


Reaction step 17.

Using solution 1.	
Using temperature 1.	
Using pressure 1.	
Using reaction 1.	

Reaction 1.	

	  6.340e-01 moles of the following reaction have been added:

	                 Relative
	Reactant            moles

	MgCl2                1.00000

	                 Relative
	Element             moles
	Cl                   2.00000
	Mg                   1.00000

-----------------------------Solution composition------------------------------

	Elements           Molality       Moles

	Cl                1.268e+00   1.268e+00
	Mg                6.340e-01   6.340e-01

----------------------------Description of solution----------------------------

                                       pH  =   6.426      Charge balance
                                       pe  =   0.620      Adjusted to redox equilibrium
       Specific Conductance (uS/cm, 5 oC) = 48459
                          Density (g/cm3)  =   1.04892
                               Volume (L)  =   1.01092
                        Activity of water  =   0.968
                           Ionic strength  =   1.902e+00
                       Mass of water (kg)  =   1.000e+00
                 Total alkalinity (eq/kg)  =   3.345e-16
                    Total carbon (mol/kg)  =   0.000e+00
                       Total CO2 (mol/kg)  =   0.000e+00
                      Temperature (deg C)  =   5.00
                           Pressure (atm)  =  0.01
                  Electrical balance (eq)  =   6.005e-13
 Percent error, 100*(Cat-|An|)/(Cat+|An|)  =   0.00
                               Iterations  =  20
                                  Total H  = 1.110124e+02
                                  Total O  = 5.550622e+01

----------------------------Distribution of species----------------------------

                                               Log       Log       Log    mole V
   Species          Molality    Activity  Molality  Activity     Gamma   cm3/mol

   H+              5.118e-07   3.748e-07    -6.291    -6.426    -0.135      0.00
   OH-             8.861e-09   4.812e-09    -8.053    -8.318    -0.265     -2.40
   H2O             5.551e+01   9.677e-01     1.744    -0.014     0.000     18.02
Cl            1.268e+00
   Cl-             1.268e+00   7.520e-01     0.103    -0.124    -0.227     18.16
H(0)          9.156e-18
   H2              4.578e-18   7.094e-18   -17.339   -17.149     0.190     28.64
Mg            6.340e-01
   Mg+2            6.340e-01   2.491e-01    -0.198    -0.604    -0.406    -19.23
   MgOH+           5.030e-07   3.369e-07    -6.298    -6.473    -0.174     (0)  
O(0)          0.000e+00
   O2              0.000e+00   0.000e+00   -65.219   -65.029     0.190     28.29

------------------------------Saturation indices-------------------------------

	Phase               SI   log IAP   log K(278 K,   0 atm)

	H2(g)           -14.11    -17.15   -3.03  H2
	H2O(g)           -2.07     -0.01    2.06  H2O
	O2(g)           -62.31    -65.03   -2.71  O2


Reaction step 18.

Using solution 1.	
Using temperature 1.	
Using pressure 1.	
Using reaction 1.	

Reaction 1.	

	  7.653e-01 moles of the following reaction have been added:

	                 Relative
	Reactant            moles

	MgCl2                1.00000

	                 Relative
	Element             moles
	Cl                   2.00000
	Mg                   1.00000

-----------------------------Solution composition------------------------------

	Elements           Molality       Moles

	Cl                1.531e+00   1.531e+00
	Mg                7.654e-01   7.654e-01

----------------------------Description of solution----------------------------

                                       pH  =   6.358      Charge balance
                                       pe  =  13.056      Adjusted to redox equilibrium
       Specific Conductance (uS/cm, 5 oC) = 56887
                          Density (g/cm3)  =   1.05859
                               Volume (L)  =   1.01350
                        Activity of water  =   0.961
                           Ionic strength  =   2.296e+00
                       Mass of water (kg)  =   1.000e+00
                 Total alkalinity (eq/kg)  =   5.548e-12
                    Total carbon (mol/kg)  =   0.000e+00
                       Total CO2 (mol/kg)  =   0.000e+00
                      Temperature (deg C)  =   5.00
                           Pressure (atm)  =  0.01
                  Electrical balance (eq)  =   3.059e-10
 Percent error, 100*(Cat-|An|)/(Cat+|An|)  =   0.00
                               Iterations  =  56
                                  Total H  = 1.110124e+02
                                  Total O  = 5.550622e+01

----------------------------Distribution of species----------------------------

                                               Log       Log       Log    mole V
   Species          Molality    Activity  Molality  Activity     Gamma   cm3/mol

   H+              6.021e-07   4.385e-07    -6.220    -6.358    -0.138      0.00
   OH-             7.691e-09   4.085e-09    -8.114    -8.389    -0.275     -1.86
   H2O             5.551e+01   9.610e-01     1.744    -0.017     0.000     18.02
Cl            1.531e+00
   Cl-             1.531e+00   9.025e-01     0.185    -0.045    -0.229     18.29
H(0)          0.000e+00
   H2              0.000e+00   0.000e+00   -42.116   -41.886     0.230     28.64
Mg            7.654e-01
   Mg+2            7.653e-01   3.435e-01    -0.116    -0.464    -0.348    -19.06
   MgOH+           5.944e-07   3.944e-07    -6.226    -6.404    -0.178     (0)  
O(0)          3.242e-16
   O2              1.621e-16   2.751e-16   -15.790   -15.561     0.230     28.29

------------------------------Saturation indices-------------------------------

	Phase               SI   log IAP   log K(278 K,   0 atm)

	H2(g)           -38.85    -41.89   -3.03  H2
	H2O(g)           -2.07     -0.02    2.06  H2O
	O2(g)           -12.85    -15.56   -2.71  O2


Reaction step 19.

Using solution 1.	
Using temperature 1.	
Using pressure 1.	
Using reaction 1.	

Reaction 1.	

	  9.985e-01 moles of the following reaction have been added:

	                 Relative
	Reactant            moles

	MgCl2                1.00000

	                 Relative
	Element             moles
	Cl                   2.00000
	Mg                   1.00000

-----------------------------Solution composition------------------------------

	Elements           Molality       Moles

	Cl                1.997e+00   1.997e+00
	Mg                9.985e-01   9.985e-01

----------------------------Description of solution----------------------------

                                       pH  =   6.247      Charge balance
                                       pe  =  12.925      Adjusted to redox equilibrium
       Specific Conductance (uS/cm, 5 oC) = 74762
                          Density (g/cm3)  =   1.07539
                               Volume (L)  =   1.01830
                        Activity of water  =   0.949
                           Ionic strength  =   2.996e+00
                       Mass of water (kg)  =   1.000e+00
                 Total alkalinity (eq/kg)  =   1.113e-13
                    Total carbon (mol/kg)  =   0.000e+00
                       Total CO2 (mol/kg)  =   0.000e+00
                      Temperature (deg C)  =   5.00
                           Pressure (atm)  =  0.01
                  Electrical balance (eq)  =   2.425e-11
 Percent error, 100*(Cat-|An|)/(Cat+|An|)  =   0.00
                               Iterations  =  54
                                  Total H  = 1.110124e+02
                                  Total O  = 5.550622e+01

----------------------------Distribution of species----------------------------

                                               Log       Log       Log    mole V
   Species          Molality    Activity  Molality  Activity     Gamma   cm3/mol

   H+              7.832e-07   5.661e-07    -6.106    -6.247    -0.141      0.00
   OH-             6.063e-09   3.125e-09    -8.217    -8.505    -0.288     -0.93
   H2O             5.551e+01   9.491e-01     1.744    -0.023     0.000     18.02
Cl            1.997e+00
   Cl-             1.997e+00   1.176e+00     0.300     0.070    -0.230     18.51
H(0)          0.000e+00
   H2              0.000e+00   0.000e+00   -41.700   -41.401     0.300     28.64
Mg            9.985e-01
   Mg+2            9.985e-01   5.799e-01    -0.001    -0.237    -0.236    -18.78
   MgOH+           7.772e-07   5.093e-07    -6.109    -6.293    -0.184     (0)  
O(0)          2.877e-17
   O2              1.439e-17   2.868e-17   -16.842   -16.542     0.300     28.29

------------------------------Saturation indices-------------------------------

	Phase               SI   log IAP   log K(278 K,   0 atm)

	H2(g)           -38.37    -41.40   -3.03  H2
	H2O(g)           -2.08     -0.02    2.06  H2O
	O2(g)           -13.83    -16.54   -2.71  O2


------------------
End of simulation.
------------------

------------------------------------
Reading input data for simulation 3.
------------------------------------

	USE solution 1
	REACTION_TEMPERATURE
	 15.000000
	REACTION_PRESSURE
	 0.000000
	REACTION
	 MgCl2 1
	0 0.032780 0.040040 0.041370 0.048510 0.050000 0.065620 0.078900 0.090080 0.096270 0.100000 0.130640 0.160140 0.195250 0.267670 0.374850 0.408110 0.500000 0.524760 0.551930 0.634040 0.765350 0.974100 0.998510 1.000000 2.000000
	USER_GRAPH
	 -headings 15.oC
	10 data 0, 14.370000, 14.514898, 14.882486, 14.993847, 15.091290, 15.570000, 15.531797, 15.303904, 15.422103, 16.130229, 16.420000, 16.160142, 16.375653, 17.290000, 17.313619, 17.516298, 18.268941, 18.540000, 18.108905, 18.409982, 19.120000, 19.525234, 20.100000, 20.119242, 22.459403,
	20 dim d(26)
	30 read d(1), d(2), d(3), d(4), d(5), d(6), d(7), d(8), d(9), d(10), d(11), d(12), d(13), d(14), d(15), d(16), d(17), d(18), d(19), d(20), d(21), d(22), d(23), d(24), d(25), d(26),
	40 if step_no = 1 then put(rho, 10)
	50 if step_no > 1 then Vmol = (1e3 + tot("Mg") * 95.218) / (tot("Mg") * rho) - 1e3 / (tot("Mg") * get(10))
	60 if step_no = 1 then dif = 0 else dif = Vmol - d(step_no)
	62 if step_no = 1 then goto 90
	70 plot_xy tot("Mg"), d(step_no), line_w = 0, color = Red #aph_x tot("Mg") # dif, str$(tc), str$(pressure), str$(step_no + get(1))
	80 plot_xy tot("Mg"), Vmol, symbol = None, color = Red #step_no = 264 then put(step_no + get(1), 1)
	90 end
	END
-----------------------------------------
Beginning of batch-reaction calculations.
-----------------------------------------

Reaction step 1.

Using solution 1.	
Using temperature 1.	
Using pressure 1.	
Using reaction 1.	

Reaction 1.	

	  0.000e+00 moles of the following reaction have been added:

	                 Relative
	Reactant            moles

	MgCl2                1.00000

	                 Relative
	Element             moles
	Cl                   2.00000
	Mg                   1.00000

-----------------------------Solution composition------------------------------

	Elements           Molality       Moles

	Pure water     

----------------------------Description of solution----------------------------

                                       pH  =   7.172      Charge balance
                                       pe  =  -0.315      Adjusted to redox equilibrium
       Specific Conductance (uS/cm, 15 oC) = 0
                          Density (g/cm3)  =   0.99905
                               Volume (L)  =   1.00095
                        Activity of water  =   1.000
                           Ionic strength  =   6.737e-08
                       Mass of water (kg)  =   1.000e+00
                 Total alkalinity (eq/kg)  =   3.040e-17
                    Total carbon (mol/kg)  =   0.000e+00
                       Total CO2 (mol/kg)  =   0.000e+00
                      Temperature (deg C)  =  15.00
                           Pressure (atm)  =  0.02
                  Electrical balance (eq)  =  -3.040e-17
 Percent error, 100*(Cat-|An|)/(Cat+|An|)  =  -0.00
                               Iterations  =  31
                                  Total H  = 1.110124e+02
                                  Total O  = 5.550622e+01

----------------------------Distribution of species----------------------------

                                               Log       Log       Log    mole V
   Species          Molality    Activity  Molality  Activity     Gamma   cm3/mol

   OH-             6.737e-08   6.735e-08    -7.172    -7.172    -0.000     -4.66
   H+              6.737e-08   6.735e-08    -7.172    -7.172    -0.000      0.00
   H2O             5.551e+01   1.000e+00     1.744    -0.000     0.000     18.03
H(0)          3.040e-17
   H2              1.520e-17   1.520e-17   -16.818   -16.818     0.000     28.62
O(0)          0.000e+00
   O2              0.000e+00   0.000e+00   -62.083   -62.083     0.000     29.51

------------------------------Saturation indices-------------------------------

	Phase               SI   log IAP   log K(288 K,   0 atm)

	H2(g)           -13.75    -16.82   -3.07  H2
	H2O(g)           -1.77     -0.00    1.77  H2O
	O2(g)           -59.27    -62.08   -2.81  O2


Reaction step 2.

Using solution 1.	
Using temperature 1.	
Using pressure 1.	
Using reaction 1.	

Reaction 1.	

	  3.278e-02 moles of the following reaction have been added:

	                 Relative
	Reactant            moles

	MgCl2                1.00000

	                 Relative
	Element             moles
	Cl                   2.00000
	Mg                   1.00000

-----------------------------Solution composition------------------------------

	Elements           Molality       Moles

	Cl                6.556e-02   6.556e-02
	Mg                3.278e-02   3.278e-02

----------------------------Description of solution----------------------------

                                       pH  =   6.803      Charge balance
                                       pe  =   0.072      Adjusted to redox equilibrium
       Specific Conductance (uS/cm, 15 oC) = 5216
                          Density (g/cm3)  =   1.00168
                               Volume (L)  =   1.00144
                        Activity of water  =   0.998
                           Ionic strength  =   9.834e-02
                       Mass of water (kg)  =   1.000e+00
                 Total alkalinity (eq/kg)  =   2.706e-17
                    Total carbon (mol/kg)  =   0.000e+00
                       Total CO2 (mol/kg)  =   0.000e+00
                      Temperature (deg C)  =  15.00
                           Pressure (atm)  =  0.02
                  Electrical balance (eq)  =   2.456e-15
 Percent error, 100*(Cat-|An|)/(Cat+|An|)  =   0.00
                               Iterations  =   9
                                  Total H  = 1.110124e+02
                                  Total O  = 5.550622e+01

----------------------------Distribution of species----------------------------

                                               Log       Log       Log    mole V
   Species          Molality    Activity  Molality  Activity     Gamma   cm3/mol

   H+              1.901e-07   1.575e-07    -6.721    -6.803    -0.082      0.00
   OH-             3.754e-08   2.876e-08    -7.425    -7.541    -0.116     -4.28
   H2O             5.551e+01   9.983e-01     1.744    -0.001     0.000     18.03
Cl            6.556e-02
   Cl-             6.556e-02   5.054e-02    -1.183    -1.296    -0.113     17.92
H(0)          2.729e-17
   H2              1.364e-17   1.396e-17   -16.865   -16.855     0.010     28.62
Mg            3.278e-02
   Mg+2            3.278e-02   1.358e-02    -1.484    -1.867    -0.383    -20.83
   MgOH+           1.526e-07   1.228e-07    -6.816    -6.911    -0.094     (0)  
O(0)          0.000e+00
   O2              0.000e+00   0.000e+00   -62.020   -62.010     0.010     29.51

------------------------------Saturation indices-------------------------------

	Phase               SI   log IAP   log K(288 K,   0 atm)

	H2(g)           -13.78    -16.86   -3.07  H2
	H2O(g)           -1.77     -0.00    1.77  H2O
	O2(g)           -59.20    -62.01   -2.81  O2


Reaction step 3.

Using solution 1.	
Using temperature 1.	
Using pressure 1.	
Using reaction 1.	

Reaction 1.	

	  4.004e-02 moles of the following reaction have been added:

	                 Relative
	Reactant            moles

	MgCl2                1.00000

	                 Relative
	Element             moles
	Cl                   2.00000
	Mg                   1.00000

-----------------------------Solution composition------------------------------

	Elements           Molality       Moles

	Cl                8.008e-02   8.008e-02
	Mg                4.004e-02   4.004e-02

----------------------------Description of solution----------------------------

                                       pH  =   6.775      Charge balance
                                       pe  =   0.076      Adjusted to redox equilibrium
       Specific Conductance (uS/cm, 15 oC) = 6278
                          Density (g/cm3)  =   1.00226
                               Volume (L)  =   1.00155
                        Activity of water  =   0.998
                           Ionic strength  =   1.201e-01
                       Mass of water (kg)  =   1.000e+00
                 Total alkalinity (eq/kg)  =   2.982e-17
                    Total carbon (mol/kg)  =   0.000e+00
                       Total CO2 (mol/kg)  =   0.000e+00
                      Temperature (deg C)  =  15.00
                           Pressure (atm)  =  0.02
                  Electrical balance (eq)  =   1.199e-14
 Percent error, 100*(Cat-|An|)/(Cat+|An|)  =   0.00
                               Iterations  =   9
                                  Total H  = 1.110124e+02
                                  Total O  = 5.550622e+01

----------------------------Distribution of species----------------------------

                                               Log       Log       Log    mole V
   Species          Molality    Activity  Molality  Activity     Gamma   cm3/mol

   H+              2.045e-07   1.677e-07    -6.689    -6.775    -0.086      0.00
   OH-             3.595e-08   2.699e-08    -7.444    -7.569    -0.125     -4.23
   H2O             5.551e+01   9.980e-01     1.744    -0.001     0.000     18.03
Cl            8.008e-02
   Cl-             8.008e-02   6.058e-02    -1.096    -1.218    -0.121     17.95
H(0)          3.030e-17
   H2              1.515e-17   1.558e-17   -16.820   -16.808     0.012     28.62
Mg            4.004e-02
   Mg+2            4.004e-02   1.578e-02    -1.398    -1.802    -0.404    -20.77
   MgOH+           1.686e-07   1.339e-07    -6.773    -6.873    -0.100     (0)  
O(0)          0.000e+00
   O2              0.000e+00   0.000e+00   -62.118   -62.106     0.012     29.51

------------------------------Saturation indices-------------------------------

	Phase               SI   log IAP   log K(288 K,   0 atm)

	H2(g)           -13.73    -16.81   -3.07  H2
	H2O(g)           -1.77     -0.00    1.77  H2O
	O2(g)           -59.29    -62.11   -2.81  O2


Reaction step 4.

Using solution 1.	
Using temperature 1.	
Using pressure 1.	
Using reaction 1.	

Reaction 1.	

	  4.137e-02 moles of the following reaction have been added:

	                 Relative
	Reactant            moles

	MgCl2                1.00000

	                 Relative
	Element             moles
	Cl                   2.00000
	Mg                   1.00000

-----------------------------Solution composition------------------------------

	Elements           Molality       Moles

	Cl                8.274e-02   8.274e-02
	Mg                4.137e-02   4.137e-02

----------------------------Description of solution----------------------------

                                       pH  =   6.771      Charge balance
                                       pe  =   0.087      Adjusted to redox equilibrium
       Specific Conductance (uS/cm, 15 oC) = 6471
                          Density (g/cm3)  =   1.00236
                               Volume (L)  =   1.00157
                        Activity of water  =   0.998
                           Ionic strength  =   1.241e-01
                       Mass of water (kg)  =   1.000e+00
                 Total alkalinity (eq/kg)  =   3.055e-17
                    Total carbon (mol/kg)  =   0.000e+00
                       Total CO2 (mol/kg)  =   0.000e+00
                      Temperature (deg C)  =  15.00
                           Pressure (atm)  =  0.02
                  Electrical balance (eq)  =   1.885e-14
 Percent error, 100*(Cat-|An|)/(Cat+|An|)  =   0.00
                               Iterations  =   9
                                  Total H  = 1.110124e+02
                                  Total O  = 5.550622e+01

----------------------------Distribution of species----------------------------

                                               Log       Log       Log    mole V
   Species          Molality    Activity  Molality  Activity     Gamma   cm3/mol

   H+              2.070e-07   1.695e-07    -6.684    -6.771    -0.087      0.00
   OH-             3.569e-08   2.670e-08    -7.447    -7.573    -0.126     -4.22
   H2O             5.551e+01   9.979e-01     1.744    -0.001     0.000     18.03
Cl            8.274e-02
   Cl-             8.274e-02   6.240e-02    -1.082    -1.205    -0.123     17.95
H(0)          2.937e-17
   H2              1.469e-17   1.511e-17   -16.833   -16.821     0.012     28.62
Mg            4.137e-02
   Mg+2            4.137e-02   1.617e-02    -1.383    -1.791    -0.408    -20.76
   MgOH+           1.713e-07   1.358e-07    -6.766    -6.867    -0.101     (0)  
O(0)          0.000e+00
   O2              0.000e+00   0.000e+00   -62.092   -62.080     0.012     29.51

------------------------------Saturation indices-------------------------------

	Phase               SI   log IAP   log K(288 K,   0 atm)

	H2(g)           -13.75    -16.82   -3.07  H2
	H2O(g)           -1.77     -0.00    1.77  H2O
	O2(g)           -59.27    -62.08   -2.81  O2


Reaction step 5.

Using solution 1.	
Using temperature 1.	
Using pressure 1.	
Using reaction 1.	

Reaction 1.	

	  4.851e-02 moles of the following reaction have been added:

	                 Relative
	Reactant            moles

	MgCl2                1.00000

	                 Relative
	Element             moles
	Cl                   2.00000
	Mg                   1.00000

-----------------------------Solution composition------------------------------

	Elements           Molality       Moles

	Cl                9.702e-02   9.702e-02
	Mg                4.851e-02   4.851e-02

----------------------------Description of solution----------------------------

                                       pH  =   6.748      Charge balance
                                       pe  =   0.056      Adjusted to redox equilibrium
       Specific Conductance (uS/cm, 15 oC) = 7498
                          Density (g/cm3)  =   1.00293
                               Volume (L)  =   1.00169
                        Activity of water  =   0.998
                           Ionic strength  =   1.455e-01
                       Mass of water (kg)  =   1.000e+00
                 Total alkalinity (eq/kg)  =   6.953e-17
                    Total carbon (mol/kg)  =   0.000e+00
                       Total CO2 (mol/kg)  =   0.000e+00
                      Temperature (deg C)  =  15.00
                           Pressure (atm)  =  0.02
                  Electrical balance (eq)  =   4.219e-13
 Percent error, 100*(Cat-|An|)/(Cat+|An|)  =   0.00
                               Iterations  =  17
                                  Total H  = 1.110124e+02
                                  Total O  = 5.550622e+01

----------------------------Distribution of species----------------------------

                                               Log       Log       Log    mole V
   Species          Molality    Activity  Molality  Activity     Gamma   cm3/mol

   H+              2.198e-07   1.786e-07    -6.658    -6.748    -0.090      0.00
   OH-             3.444e-08   2.534e-08    -7.463    -7.596    -0.133     -4.17
   H2O             5.551e+01   9.975e-01     1.744    -0.001     0.000     18.03
Cl            9.702e-02
   Cl-             9.702e-02   7.204e-02    -1.013    -1.142    -0.129     17.98
H(0)          3.744e-17
   H2              1.872e-17   1.936e-17   -16.728   -16.713     0.015     28.62
Mg            4.851e-02
   Mg+2            4.851e-02   1.823e-02    -1.314    -1.739    -0.425    -20.72
   MgOH+           1.853e-07   1.453e-07    -6.732    -6.838    -0.106     (0)  
O(0)          0.000e+00
   O2              0.000e+00   0.000e+00   -62.310   -62.295     0.015     29.51

------------------------------Saturation indices-------------------------------

	Phase               SI   log IAP   log K(288 K,   0 atm)

	H2(g)           -13.64    -16.71   -3.07  H2
	H2O(g)           -1.77     -0.00    1.77  H2O
	O2(g)           -59.48    -62.30   -2.81  O2


Reaction step 6.

Using solution 1.	
Using temperature 1.	
Using pressure 1.	
Using reaction 1.	

Reaction 1.	

	  5.000e-02 moles of the following reaction have been added:

	                 Relative
	Reactant            moles

	MgCl2                1.00000

	                 Relative
	Element             moles
	Cl                   2.00000
	Mg                   1.00000

-----------------------------Solution composition------------------------------

	Elements           Molality       Moles

	Cl                1.000e-01   1.000e-01
	Mg                5.000e-02   5.000e-02

----------------------------Description of solution----------------------------

                                       pH  =   6.744      Charge balance
                                       pe  =   0.102      Adjusted to redox equilibrium
       Specific Conductance (uS/cm, 15 oC) = 7711
                          Density (g/cm3)  =   1.00304
                               Volume (L)  =   1.00171
                        Activity of water  =   0.997
                           Ionic strength  =   1.500e-01
                       Mass of water (kg)  =   1.000e+00
                 Total alkalinity (eq/kg)  =   3.790e-17
                    Total carbon (mol/kg)  =   0.000e+00
                       Total CO2 (mol/kg)  =   0.000e+00
                      Temperature (deg C)  =  15.00
                           Pressure (atm)  =  0.02
                  Electrical balance (eq)  =   8.817e-14
 Percent error, 100*(Cat-|An|)/(Cat+|An|)  =   0.00
                               Iterations  =  11
                                  Total H  = 1.110124e+02
                                  Total O  = 5.550622e+01

----------------------------Distribution of species----------------------------

                                               Log       Log       Log    mole V
   Species          Molality    Activity  Molality  Activity     Gamma   cm3/mol

   H+              2.223e-07   1.803e-07    -6.653    -6.744    -0.091      0.00
   OH-             3.421e-08   2.509e-08    -7.466    -7.601    -0.135     -4.16
   H2O             5.551e+01   9.974e-01     1.744    -0.001     0.000     18.03
Cl            1.000e-01
   Cl-             1.000e-01   7.403e-02    -1.000    -1.131    -0.131     17.98
H(0)          3.078e-17
   H2              1.539e-17   1.593e-17   -16.813   -16.798     0.015     28.62
Mg            5.000e-02
   Mg+2            5.000e-02   1.865e-02    -1.301    -1.729    -0.428    -20.71
   MgOH+           1.881e-07   1.472e-07    -6.726    -6.832    -0.107     (0)  
O(0)          0.000e+00
   O2              0.000e+00   0.000e+00   -62.141   -62.126     0.015     29.51

------------------------------Saturation indices-------------------------------

	Phase               SI   log IAP   log K(288 K,   0 atm)

	H2(g)           -13.73    -16.80   -3.07  H2
	H2O(g)           -1.77     -0.00    1.77  H2O
	O2(g)           -59.31    -62.13   -2.81  O2


Reaction step 7.

Using solution 1.	
Using temperature 1.	
Using pressure 1.	
Using reaction 1.	

Reaction 1.	

	  6.562e-02 moles of the following reaction have been added:

	                 Relative
	Reactant            moles

	MgCl2                1.00000

[...]
   Species          Molality    Activity  Molality  Activity     Gamma   cm3/mol

   H+              4.072e-04   2.709e-04    -3.390    -3.567    -0.177      0.00
   OH-             3.484e-09   1.379e-09    -8.458    -8.861    -0.403     15.40
   H2O             5.551e+01   7.795e-01     1.744    -0.108     0.000     18.73
Cl            8.648e+00
   Cl-             8.648e+00   5.844e+00     0.937     0.767    -0.170     20.88
H(0)          2.475e-32
   H2              1.238e-32   2.454e-31   -31.907   -30.610     1.297     28.57
Mg            4.324e+00
   Mg+2            4.324e+00   1.350e+02     0.636     2.130     1.494    -18.66
   MgOH+           4.072e-04   2.357e-04    -3.390    -3.628    -0.237     (0)  
O(0)          8.378e-15
   O2              4.189e-15   8.304e-14   -14.378   -13.081     1.297     33.72

------------------------------Saturation indices-------------------------------

	Phase               SI   log IAP   log K(368 K,   1 atm)

	H2(g)           -27.50    -30.61   -3.11  H2
	H2O(g)           -0.19     -0.11    0.08  H2O
	O2(g)            -9.97    -13.08   -3.11  O2


------------------
End of simulation.
------------------

-------------------------------------
Reading input data for simulation 10.
-------------------------------------

	USE solution 1
	REACTION_TEMPERATURE
	 99.000000
	REACTION_PRESSURE
	 0.000000
	REACTION
	 MgCl2 1
	0 0.108440 0.197110 0.281260 0.388420 0.527750
	USER_GRAPH
	 -headings 99.oC
	10 data 0, 10.840000, 11.780000, 12.490000, 12.910000, 13.630000,
	20 dim d(6)
	30 read d(1), d(2), d(3), d(4), d(5), d(6),
	40 if step_no = 1 then put(rho, 10)
	50 if step_no > 1 then Vmol = (1e3 + tot("Mg") * 95.218) / (tot("Mg") * rho) - 1e3 / (tot("Mg") * get(10))
	60 if step_no = 1 then dif = 0 else dif = Vmol - d(step_no)
	62 if step_no = 1 then goto 90
	70 plot_xy tot("Mg"), d(step_no), line_w = 0, color = Blue #aph_x tot("Mg") # dif, str$(tc), str$(pressure), str$(step_no + get(1))
	80 plot_xy tot("Mg"), Vmol, symbol = None, color = Blue #step_no = 6 then put(step_no + get(1), 1)
	90 end
	END
-----------------------------------------
Beginning of batch-reaction calculations.
-----------------------------------------

Reaction step 1.

Using solution 1.	
Using temperature 1.	
Using pressure 1.	
Using reaction 1.	

Reaction 1.	

	  0.000e+00 moles of the following reaction have been added:

	                 Relative
	Reactant            moles

	MgCl2                1.00000

	                 Relative
	Element             moles
	Cl                   2.00000
	Mg                   1.00000

-----------------------------Solution composition------------------------------

	Elements           Molality       Moles

	Pure water     

----------------------------Description of solution----------------------------

                                       pH  =   6.127      Charge balance
                                       pe  =   0.579      Adjusted to redox equilibrium
       Specific Conductance (uS/cm, 99 oC) = 1
                          Density (g/cm3)  =   0.95906
                               Volume (L)  =   1.04269
                        Activity of water  =   1.000
                           Ionic strength  =   7.471e-07
                       Mass of water (kg)  =   1.000e+00
                 Total alkalinity (eq/kg)  =   3.036e-17
                    Total carbon (mol/kg)  =   0.000e+00
                       Total CO2 (mol/kg)  =   0.000e+00
                      Temperature (deg C)  =  99.00
                           Pressure (atm)  =  0.96
                  Electrical balance (eq)  =  -3.036e-17
 Percent error, 100*(Cat-|An|)/(Cat+|An|)  =  -0.00
                               Iterations  =  10
                                  Total H  = 1.110124e+02
                                  Total O  = 5.550622e+01

----------------------------Distribution of species----------------------------

                                               Log       Log       Log    mole V
   Species          Molality    Activity  Molality  Activity     Gamma   cm3/mol

   OH-             7.471e-07   7.463e-07    -6.127    -6.127    -0.001     -5.88
   H+              7.471e-07   7.463e-07    -6.127    -6.127    -0.001      0.00
   H2O             5.551e+01   1.000e+00     1.744    -0.000     0.000     18.79
H(0)          3.040e-17
   H2              1.520e-17   1.520e-17   -16.818   -16.818     0.000     28.57
O(0)          4.899e-40
   O2              2.450e-40   2.450e-40   -39.611   -39.611     0.000     33.86

------------------------------Saturation indices-------------------------------

	Phase               SI   log IAP   log K(372 K,   1 atm)

	H2(g)           -13.72    -16.82   -3.10  H2
	H2O(g)           -0.02     -0.00    0.02  H2O
	O2(g)           -36.50    -39.61   -3.11  O2


Reaction step 2.

Using solution 1.	
Using temperature 1.	
Using pressure 1.	
Using reaction 1.	

Reaction 1.	

	  1.084e-01 moles of the following reaction have been added:

	                 Relative
	Reactant            moles

	MgCl2                1.00000

	                 Relative
	Element             moles
	Cl                   2.00000
	Mg                   1.00000

-----------------------------Solution composition------------------------------

	Elements           Molality       Moles

	Cl                2.169e-01   2.169e-01
	Mg                1.084e-01   1.084e-01

----------------------------Description of solution----------------------------

                                       pH  =   5.318      Charge balance
                                       pe  =   1.377      Adjusted to redox equilibrium
       Specific Conductance (uS/cm, 99 oC) = 59521
                          Density (g/cm3)  =   0.96783
                               Volume (L)  =   1.04391
                        Activity of water  =   0.994
                           Ionic strength  =   3.253e-01
                       Mass of water (kg)  =   1.000e+00
                 Total alkalinity (eq/kg)  =   5.277e-16
                    Total carbon (mol/kg)  =   0.000e+00
                       Total CO2 (mol/kg)  =   0.000e+00
                      Temperature (deg C)  =  99.00
                           Pressure (atm)  =  0.96
                  Electrical balance (eq)  =   7.656e-15
 Percent error, 100*(Cat-|An|)/(Cat+|An|)  =   0.00
                               Iterations  =  13
                                  Total H  = 1.110124e+02
                                  Total O  = 5.550622e+01

----------------------------Distribution of species----------------------------

                                               Log       Log       Log    mole V
   Species          Molality    Activity  Molality  Activity     Gamma   cm3/mol

   H+              6.391e-06   4.805e-06    -5.194    -5.318    -0.124      0.00
   OH-             1.839e-07   1.153e-07    -6.735    -6.938    -0.203     -4.39
   H2O             5.551e+01   9.945e-01     1.744    -0.002     0.000     18.79
Cl            2.169e-01
   Cl-             2.169e-01   1.386e-01    -0.664    -0.858    -0.194     17.25
H(0)          2.961e-17
   H2              1.481e-17   1.596e-17   -16.830   -16.797     0.033     28.57
Mg            1.084e-01
   Mg+2            1.084e-01   2.764e-02    -0.965    -1.559    -0.594    -23.24
   MgOH+           6.207e-06   4.389e-06    -5.207    -5.358    -0.151     (0)  
O(0)          4.079e-40
   O2              2.039e-40   2.198e-40   -39.690   -39.658     0.033     33.86

------------------------------Saturation indices-------------------------------

	Phase               SI   log IAP   log K(372 K,   1 atm)

	H2(g)           -13.69    -16.80   -3.10  H2
	H2O(g)           -0.02     -0.00    0.02  H2O
	O2(g)           -36.54    -39.66   -3.11  O2


Reaction step 3.

Using solution 1.	
Using temperature 1.	
Using pressure 1.	
Using reaction 1.	

Reaction 1.	

	  1.971e-01 moles of the following reaction have been added:

	                 Relative
	Reactant            moles

	MgCl2                1.00000

	                 Relative
	Element             moles
	Cl                   2.00000
	Mg                   1.00000

-----------------------------Solution composition------------------------------

	Elements           Molality       Moles

	Cl                3.942e-01   3.942e-01
	Mg                1.971e-01   1.971e-01

----------------------------Description of solution----------------------------

                                       pH  =   5.209      Charge balance
                                       pe  =   1.304      Adjusted to redox equilibrium
       Specific Conductance (uS/cm, 99 oC) = 97990
                          Density (g/cm3)  =   0.97479
                               Volume (L)  =   1.04512
                        Activity of water  =   0.990
                           Ionic strength  =   5.913e-01
                       Mass of water (kg)  =   1.000e+00
                 Total alkalinity (eq/kg)  =   3.533e-14
                    Total carbon (mol/kg)  =   0.000e+00
                       Total CO2 (mol/kg)  =   0.000e+00
                      Temperature (deg C)  =  99.00
                           Pressure (atm)  =  0.96
                  Electrical balance (eq)  =   1.025e-11
 Percent error, 100*(Cat-|An|)/(Cat+|An|)  =   0.00
                               Iterations  =  16
                                  Total H  = 1.110124e+02
                                  Total O  = 5.550622e+01

----------------------------Distribution of species----------------------------

                                               Log       Log       Log    mole V
   Species          Molality    Activity  Molality  Activity     Gamma   cm3/mol

   H+              8.469e-06   6.182e-06    -5.072    -5.209    -0.137      0.00
   OH-             1.549e-07   8.918e-08    -6.810    -7.050    -0.240     -3.71
   H2O             5.551e+01   9.899e-01     1.744    -0.004     0.000     18.79
Cl            3.942e-01
   Cl-             3.942e-01   2.346e-01    -0.404    -0.630    -0.225     17.60
H(0)          6.444e-17
   H2              3.222e-17   3.692e-17   -16.492   -16.433     0.059     28.57
Mg            1.971e-01
   Mg+2            1.971e-01   4.576e-02    -0.705    -1.340    -0.634    -22.87
   MgOH+           8.314e-06   5.623e-06    -5.080    -5.250    -0.170     (0)  
O(0)          0.000e+00
   O2              0.000e+00   0.000e+00   -40.450   -40.390     0.059     33.86

------------------------------Saturation indices-------------------------------

	Phase               SI   log IAP   log K(372 K,   1 atm)

	H2(g)           -13.33    -16.43   -3.10  H2
	H2O(g)           -0.02     -0.00    0.02  H2O
	O2(g)           -37.28    -40.39   -3.11  O2


Reaction step 4.

Using solution 1.	
Using temperature 1.	
Using pressure 1.	
Using reaction 1.	

Reaction 1.	

	  2.813e-01 moles of the following reaction have been added:

	                 Relative
	Reactant            moles

	MgCl2                1.00000

	                 Relative
	Element             moles
	Cl                   2.00000
	Mg                   1.00000

-----------------------------Solution composition------------------------------

	Elements           Molality       Moles

	Cl                5.625e-01   5.625e-01
	Mg                2.813e-01   2.813e-01

----------------------------Description of solution----------------------------

                                       pH  =   5.133      Charge balance
                                       pe  =   1.716      Adjusted to redox equilibrium
       Specific Conductance (uS/cm, 99 oC) = 127508
                          Density (g/cm3)  =   0.98129
                               Volume (L)  =   1.04636
                        Activity of water  =   0.986
                           Ionic strength  =   8.438e-01
                       Mass of water (kg)  =   1.000e+00
                 Total alkalinity (eq/kg)  =   7.785e-11
                    Total carbon (mol/kg)  =   0.000e+00
                       Total CO2 (mol/kg)  =   0.000e+00
                      Temperature (deg C)  =  99.00
                           Pressure (atm)  =  0.96
                  Electrical balance (eq)  =   5.069e-09
 Percent error, 100*(Cat-|An|)/(Cat+|An|)  =   0.00
                               Iterations  =  24
                                  Total H  = 1.110124e+02
                                  Total O  = 5.550622e+01

----------------------------Distribution of species----------------------------

                                               Log       Log       Log    mole V
   Species          Molality    Activity  Molality  Activity     Gamma   cm3/mol

   H+              1.024e-05   7.356e-06    -4.990    -5.133    -0.144      0.00
   OH-             1.364e-07   7.462e-08    -6.865    -7.127    -0.262     -3.14
   H2O             5.551e+01   9.857e-01     1.744    -0.006     0.000     18.79
Cl            5.625e-01
   Cl-             5.625e-01   3.218e-01    -0.250    -0.492    -0.243     17.85
H(0)          1.292e-17
   H2              6.459e-18   7.844e-18   -17.190   -17.105     0.084     28.57
Mg            2.813e-01
   Mg+2            2.812e-01   6.482e-02    -0.551    -1.188    -0.637    -22.63
   MgOH+           1.010e-05   6.664e-06    -4.996    -5.176    -0.181     (0)  
O(0)          1.472e-39
   O2              7.359e-40   8.937e-40   -39.133   -39.049     0.084     33.86

------------------------------Saturation indices-------------------------------

	Phase               SI   log IAP   log K(372 K,   1 atm)

	H2(g)           -14.00    -17.11   -3.10  H2
	H2O(g)           -0.03     -0.01    0.02  H2O
	O2(g)           -35.93    -39.05   -3.11  O2


Reaction step 5.

Using solution 1.	
Using temperature 1.	
Using pressure 1.	
Using reaction 1.	

Reaction 1.	

	  3.884e-01 moles of the following reaction have been added:

	                 Relative
	Reactant            moles

	MgCl2                1.00000

	                 Relative
	Element             moles
	Cl                   2.00000
	Mg                   1.00000

-----------------------------Solution composition------------------------------

	Elements           Molality       Moles

	Cl                7.768e-01   7.768e-01
	Mg                3.884e-01   3.884e-01

----------------------------Description of solution----------------------------

                                       pH  =   5.055      Charge balance
                                       pe  =   1.285      Adjusted to redox equilibrium
       Specific Conductance (uS/cm, 99 oC) = 157185
                          Density (g/cm3)  =   0.98944
                               Volume (L)  =   1.04805
                        Activity of water  =   0.980
                           Ionic strength  =   1.165e+00
                       Mass of water (kg)  =   1.000e+00
                 Total alkalinity (eq/kg)  =   2.438e-15
                    Total carbon (mol/kg)  =   0.000e+00
                       Total CO2 (mol/kg)  =   0.000e+00
                      Temperature (deg C)  =  99.00
                           Pressure (atm)  =  0.96
                  Electrical balance (eq)  =   1.413e-13
 Percent error, 100*(Cat-|An|)/(Cat+|An|)  =   0.00
                               Iterations  =  26
                                  Total H  = 1.110124e+02
                                  Total O  = 5.550622e+01

----------------------------Distribution of species----------------------------

                                               Log       Log       Log    mole V
   Species          Molality    Activity  Molality  Activity     Gamma   cm3/mol

   H+              1.244e-05   8.817e-06    -4.905    -5.055    -0.149      0.00
   OH-             1.185e-07   6.191e-08    -6.926    -7.208    -0.282     -2.46
   H2O             5.551e+01   9.802e-01     1.744    -0.009     0.000     18.79
Cl            7.768e-01
   Cl-             7.768e-01   4.306e-01    -0.110    -0.366    -0.256     18.11
H(0)          1.257e-16
   H2              6.285e-17   8.220e-17   -16.202   -16.085     0.117     28.57
Mg            3.884e-01
   Mg+2            3.884e-01   9.324e-02    -0.411    -1.030    -0.620    -22.41
   MgOH+           1.232e-05   7.954e-06    -4.909    -5.099    -0.190     (0)  
O(0)          0.000e+00
   O2              0.000e+00   0.000e+00   -41.211   -41.094     0.117     33.86

------------------------------Saturation indices-------------------------------

	Phase               SI   log IAP   log K(372 K,   1 atm)

	H2(g)           -12.98    -16.09   -3.10  H2
	H2O(g)           -0.03     -0.01    0.02  H2O
	O2(g)           -37.98    -41.09   -3.11  O2


Reaction step 6.

Using solution 1.	
Using temperature 1.	
Using pressure 1.	
Using reaction 1.	

Reaction 1.	

	  5.278e-01 moles of the following reaction have been added:

	                 Relative
	Reactant            moles

	MgCl2                1.00000

	                 Relative
	Element             moles
	Cl                   2.00000
	Mg                   1.00000

-----------------------------Solution composition------------------------------

	Elements           Molality       Moles

	Cl                1.056e+00   1.055e+00
	Mg                5.278e-01   5.278e-01

----------------------------Description of solution----------------------------

                                       pH  =   4.968      Charge balance
                                       pe  =   7.527      Adjusted to redox equilibrium
       Specific Conductance (uS/cm, 99 oC) = 191356
                          Density (g/cm3)  =   0.99987
                               Volume (L)  =   1.05038
                        Activity of water  =   0.973
                           Ionic strength  =   1.583e+00
                       Mass of water (kg)  =   1.000e+00
                 Total alkalinity (eq/kg)  =   1.943e-14
                    Total carbon (mol/kg)  =   0.000e+00
                       Total CO2 (mol/kg)  =   0.000e+00
                      Temperature (deg C)  =  99.00
                           Pressure (atm)  =  0.96
                  Electrical balance (eq)  =   6.418e-12
 Percent error, 100*(Cat-|An|)/(Cat+|An|)  =   0.00
                               Iterations  =  10
                                  Total H  = 1.110124e+02
                                  Total O  = 5.550622e+01

----------------------------Distribution of species----------------------------

                                               Log       Log       Log    mole V
   Species          Molality    Activity  Molality  Activity     Gamma   cm3/mol

   H+              1.537e-05   1.077e-05    -4.813    -4.968    -0.155      0.00
   OH-             1.005e-07   5.033e-08    -6.998    -7.298    -0.300     -1.65
   H2O             5.551e+01   9.731e-01     1.744    -0.012     0.000     18.79
Cl            1.056e+00
   Cl-             1.056e+00   5.707e-01     0.023    -0.244    -0.267     18.38
H(0)          5.577e-29
   H2              2.788e-29   4.015e-29   -28.555   -28.396     0.158     28.57
Mg            5.278e-01
   Mg+2            5.277e-01   1.394e-01    -0.278    -0.856    -0.578    -22.18
   MgOH+           1.527e-05   9.670e-06    -4.816    -5.015    -0.198     (0)  
O(0)          4.619e-17
   O2              2.309e-17   3.325e-17   -16.637   -16.478     0.158     33.86

------------------------------Saturation indices-------------------------------

	Phase               SI   log IAP   log K(372 K,   1 atm)

	H2(g)           -25.29    -28.40   -3.10  H2
	H2O(g)           -0.03     -0.01    0.02  H2O
	O2(g)           -13.36    -16.48   -3.11  O2


------------------
End of simulation.
------------------

-------------------------------------
Reading input data for simulation 11.
-------------------------------------

-----------------------------
End of Run after 0.1 Seconds.
-----------------------------

