   Input file: Vm_NaCl_sol
  Output file: Vm_NaCl_sol.out
Database file: ../database/phreeqc.dat

------------------
Reading data base.
------------------

	SOLUTION_MASTER_SPECIES
	SOLUTION_SPECIES
	PHASES
	EXCHANGE_MASTER_SPECIES
	EXCHANGE_SPECIES
	SURFACE_MASTER_SPECIES
	SURFACE_SPECIES
	RATES
	END
------------------------------------
Reading input data for simulation 1.
------------------------------------

	DATABASE ../database/phreeqc.dat
	SOLUTION 1
	 pH 7 charge
	END
-------------------------------------------
Beginning of initial solution calculations.
-------------------------------------------

Initial solution 1.	

-----------------------------Solution composition------------------------------

	Elements           Molality       Moles

	Pure water     

----------------------------Description of solution----------------------------

                                       pH  =   6.997      Charge balance
                                       pe  =   4.000    
       Specific Conductance (uS/cm, 25 oC) = 0
                          Density (g/cm3)  =   0.99704
                               Volume (L)  =   1.00297
                        Activity of water  =   1.000
                           Ionic strength  =   1.006e-07
                       Mass of water (kg)  =   1.000e+00
                 Total alkalinity (eq/kg)  =   3.040e-17
                    Total carbon (mol/kg)  =   0.000e+00
                       Total CO2 (mol/kg)  =   0.000e+00
                      Temperature (deg C)  =  25.00
                  Electrical balance (eq)  =  -3.040e-17
 Percent error, 100*(Cat-|An|)/(Cat+|An|)  =  -0.00
                               Iterations  =   2
                                  Total H  = 1.110124e+02
                                  Total O  = 5.550622e+01

----------------------------Distribution of species----------------------------

                                               Log       Log       Log    mole V
   Species          Molality    Activity  Molality  Activity     Gamma   cm3/mol

   OH-             1.006e-07   1.006e-07    -6.997    -6.997    -0.000     -4.14
   H+              1.006e-07   1.006e-07    -6.997    -6.997    -0.000      0.00
   H2O             5.551e+01   1.000e+00     1.744    -0.000     0.000     18.07
H(0)          1.433e-25
   H2              7.166e-26   7.166e-26   -25.145   -25.145     0.000     28.61
O(0)          0.000e+00
   O2              0.000e+00   0.000e+00   -42.090   -42.090     0.000     30.40

------------------------------Saturation indices-------------------------------

	Phase               SI   log IAP   log K(298 K,   1 atm)

	H2(g)           -22.04    -25.14   -3.10  H2
	H2O(g)           -1.50     -0.00    1.50  H2O
	O2(g)           -39.20    -42.09   -2.89  O2


------------------
End of simulation.
------------------

------------------------------------
Reading input data for simulation 2.
------------------------------------

	USE solution 1
	REACTION_TEMPERATURE
	 5.000000
	REACTION_PRESSURE
	 1.000000
	REACTION
	 NaCl 1
	0 0.068450 0.093400 0.094850 0.100000 0.124260 0.161465 0.166300 0.198490 0.200000 0.257240 0.320000 0.333120 0.356409 0.475759 0.483190 0.500000 0.501200 0.501900 0.507860 0.655630 0.684443 0.724670 0.787500 0.800000 0.841150 0.947100 0.963232 0.994700 0.999200 1.001200 1.200000 1.261000 1.499860 1.501800 1.782400 1.950000 1.965000 2.003400 2.251700 2.473300 2.762500 2.951400 2.983600 3.487100 3.944700 4.447300 4.930300 5.385900 5.951800
	USER_GRAPH
	-headings 5oC
	10 data 0, 14.657906, 14.741411, 14.585688, 15.114606, 14.823821, 14.922183, 14.697092, 14.830463, 15.279405, 15.131269, 15.429920, 15.283700, 15.322325, 15.540895, 15.552742, 15.696611, 15.518762, 15.551367, 15.595391, 15.833944, 15.899870, 15.911696, 15.993571, 16.095803, 16.115112, 16.266771, 16.289291, 16.333898, 16.313042, 16.302879, 16.602808, 16.695204, 16.930814, 16.986947, 17.308670, 17.726759, 17.508545, 17.539335, 17.790072, 17.999293, 18.252674, 18.420887, 18.436035, 18.829280, 19.147293, 19.461856, 19.738854, 19.975462, 20.245315,
	20 dim d(50)
	30 read d(1), d(2), d(3), d(4), d(5), d(6), d(7), d(8), d(9), d(10), d(11), d(12), d(13), d(14), d(15), d(16), d(17), d(18), d(19), d(20), d(21), d(22), d(23), d(24), d(25), d(26), d(27), d(28), d(29), d(30), d(31), d(32), d(33), d(34), d(35), d(36), d(37), d(38), d(39), d(40), d(41), d(42), d(43), d(44), d(45), d(46), d(47), d(48), d(49), d(50),
	40 if step_no = 1 then put(rho, 10)
	50 if step_no > 1 then Vmol = (1e3 + tot("Cl") * 58.4428) / (tot("Cl") * rho) - 1e3 / (tot("Cl") * get(10))
	60 if step_no = 1 then dif = 0 else dif = Vmol - d(step_no)
	62 if step_no = 1 then goto 90
	70 plot_xy tot("Na"), d(step_no), line_w = 0, color = Yellow #aph_x tot("Na") # dif, str$(tc), str$(pressure), str$(step_no + get(1))
	80 plot_xy tot("Na"), Vmol, symbol = None, color = Yellow #step_no = 264 then put(step_no + get(1), 1)
	90 end
	END
-----------------------------------------
Beginning of batch-reaction calculations.
-----------------------------------------

Reaction step 1.

Using solution 1.	
Using temperature 1.	
Using pressure 1.	
Using reaction 1.	

Reaction 1.	

	  0.000e+00 moles of the following reaction have been added:

	                 Relative
	Reactant            moles

	NaCl                 1.00000

	                 Relative
	Element             moles
	Cl                   1.00000
	Na                   1.00000

-----------------------------Solution composition------------------------------

	Elements           Molality       Moles

	Pure water     

----------------------------Description of solution----------------------------

                                       pH  =   7.365      Charge balance
                                       pe  =  -0.484      Adjusted to redox equilibrium
       Specific Conductance (uS/cm, 5 oC) = 0
                          Density (g/cm3)  =   0.99996
                               Volume (L)  =   1.00004
                        Activity of water  =   1.000
                           Ionic strength  =   4.318e-08
                       Mass of water (kg)  =   1.000e+00
                 Total alkalinity (eq/kg)  =   3.040e-17
                    Total carbon (mol/kg)  =   0.000e+00
                       Total CO2 (mol/kg)  =   0.000e+00
                      Temperature (deg C)  =   5.00
                  Electrical balance (eq)  =  -3.040e-17
 Percent error, 100*(Cat-|An|)/(Cat+|An|)  =  -0.00
                               Iterations  =  31
                                  Total H  = 1.110124e+02
                                  Total O  = 5.550622e+01

----------------------------Distribution of species----------------------------

                                               Log       Log       Log    mole V
   Species          Molality    Activity  Molality  Activity     Gamma   cm3/mol

   OH-             4.318e-08   4.317e-08    -7.365    -7.365    -0.000     -5.54
   H+              4.318e-08   4.317e-08    -7.365    -7.365    -0.000      0.00
   H2O             5.551e+01   1.000e+00     1.744    -0.000     0.000     18.02
H(0)          3.040e-17
   H2              1.520e-17   1.520e-17   -16.818   -16.818     0.000     28.63
O(0)          0.000e+00
   O2              0.000e+00   0.000e+00   -65.662   -65.662     0.000     28.29

------------------------------Saturation indices-------------------------------

	Phase               SI   log IAP   log K(278 K,   1 atm)

	H2(g)           -13.78    -16.82   -3.03  H2
	H2O(g)           -2.06     -0.00    2.06  H2O
	O2(g)           -62.95    -65.66   -2.71  O2


Reaction step 2.

Using solution 1.	
Using temperature 1.	
Using pressure 1.	
Using reaction 1.	

Reaction 1.	

	  6.845e-02 moles of the following reaction have been added:

	                 Relative
	Reactant            moles

	NaCl                 1.00000

	                 Relative
	Element             moles
	Cl                   1.00000
	Na                   1.00000

-----------------------------Solution composition------------------------------

	Elements           Molality       Moles

	Cl                6.845e-02   6.845e-02
	Na                6.845e-02   6.845e-02

----------------------------Description of solution----------------------------

                                       pH  =   7.352      Charge balance
                                       pe  =  -0.441      Adjusted to redox equilibrium
       Specific Conductance (uS/cm, 5 oC) = 4463
                          Density (g/cm3)  =   1.00296
                               Volume (L)  =   1.00103
                        Activity of water  =   0.998
                           Ionic strength  =   6.845e-02
                       Mass of water (kg)  =   1.000e+00
                 Total alkalinity (eq/kg)  =  -7.699e-16
                    Total carbon (mol/kg)  =   0.000e+00
                       Total CO2 (mol/kg)  =   0.000e+00
                      Temperature (deg C)  =   5.00
                  Electrical balance (eq)  =   7.404e-16
 Percent error, 100*(Cat-|An|)/(Cat+|An|)  =   0.00
                               Iterations  =   8
                                  Total H  = 1.110124e+02
                                  Total O  = 5.550622e+01

----------------------------Distribution of species----------------------------

                                               Log       Log       Log    mole V
   Species          Molality    Activity  Molality  Activity     Gamma   cm3/mol

   H+              5.262e-08   4.445e-08    -7.279    -7.352    -0.073      0.00
   OH-             5.262e-08   4.183e-08    -7.279    -7.379    -0.100     -5.26
   H2O             5.551e+01   9.977e-01     1.744    -0.001     0.000     18.02
Cl            6.845e-02
   Cl-             6.845e-02   5.467e-02    -1.165    -1.262    -0.098     17.15
H(0)          2.596e-17
   H2              1.298e-17   1.318e-17   -16.887   -16.880     0.007     28.63
Na            6.845e-02
   Na+             6.845e-02   5.559e-02    -1.165    -1.255    -0.090     -2.57
   NaOH            2.289e-19   2.325e-19   -18.640   -18.633     0.007     (0)  
O(0)          0.000e+00
   O2              0.000e+00   0.000e+00   -65.548   -65.541     0.007     28.29

------------------------------Saturation indices-------------------------------

	Phase               SI   log IAP   log K(278 K,   1 atm)

	H2(g)           -13.85    -16.88   -3.03  H2
	H2O(g)           -2.06     -0.00    2.06  H2O
	Halite           -4.04     -2.52    1.52  NaCl
	O2(g)           -62.83    -65.54   -2.71  O2


Reaction step 3.

Using solution 1.	
Using temperature 1.	
Using pressure 1.	
Using reaction 1.	

Reaction 1.	

	  9.340e-02 moles of the following reaction have been added:

	                 Relative
	Reactant            moles

	NaCl                 1.00000

	                 Relative
	Element             moles
	Cl                   1.00000
	Na                   1.00000

-----------------------------Solution composition------------------------------

	Elements           Molality       Moles

	Cl                9.340e-02   9.340e-02
	Na                9.340e-02   9.340e-02

----------------------------Description of solution----------------------------

                                       pH  =   7.349      Charge balance
                                       pe  =  -0.444      Adjusted to redox equilibrium
       Specific Conductance (uS/cm, 5 oC) = 5999
                          Density (g/cm3)  =   1.00405
                               Volume (L)  =   1.00141
                        Activity of water  =   0.997
                           Ionic strength  =   9.340e-02
                       Mass of water (kg)  =   1.000e+00
                 Total alkalinity (eq/kg)  =  -7.395e-16
                    Total carbon (mol/kg)  =   0.000e+00
                       Total CO2 (mol/kg)  =   0.000e+00
                      Temperature (deg C)  =   5.00
                  Electrical balance (eq)  =   5.946e-16
 Percent error, 100*(Cat-|An|)/(Cat+|An|)  =   0.00
                               Iterations  =   8
                                  Total H  = 1.110124e+02
                                  Total O  = 5.550622e+01

----------------------------Distribution of species----------------------------

                                               Log       Log       Log    mole V
   Species          Molality    Activity  Molality  Activity     Gamma   cm3/mol

   H+              5.375e-08   4.474e-08    -7.270    -7.349    -0.080      0.00
   OH-             5.375e-08   4.153e-08    -7.270    -7.382    -0.112     -5.20
   H2O             5.551e+01   9.968e-01     1.744    -0.001     0.000     18.02
Cl            9.340e-02
   Cl-             9.340e-02   7.260e-02    -1.030    -1.139    -0.109     17.19
H(0)          2.648e-17
   H2              1.324e-17   1.353e-17   -16.878   -16.869     0.009     28.63
Na            9.340e-02
   Na+             9.340e-02   7.423e-02    -1.030    -1.129    -0.100     -2.52
   NaOH            3.017e-19   3.083e-19   -18.520   -18.511     0.009     (0)  
O(0)          0.000e+00
   O2              0.000e+00   0.000e+00   -65.573   -65.564     0.009     28.29

------------------------------Saturation indices-------------------------------

	Phase               SI   log IAP   log K(278 K,   1 atm)

	H2(g)           -13.83    -16.87   -3.03  H2
	H2O(g)           -2.06     -0.00    2.06  H2O
	Halite           -3.79     -2.27    1.52  NaCl
	O2(g)           -62.85    -65.56   -2.71  O2


Reaction step 4.

Using solution 1.	
Using temperature 1.	
Using pressure 1.	
Using reaction 1.	

Reaction 1.	

	  9.485e-02 moles of the following reaction have been added:

	                 Relative
	Reactant            moles

	NaCl                 1.00000

	                 Relative
	Element             moles
	Cl                   1.00000
	Na                   1.00000

-----------------------------Solution composition------------------------------

	Elements           Molality       Moles

	Cl                9.485e-02   9.485e-02
	Na                9.485e-02   9.485e-02

----------------------------Description of solution----------------------------

                                       pH  =   7.349      Charge balance
                                       pe  =  -0.513      Adjusted to redox equilibrium
       Specific Conductance (uS/cm, 5 oC) = 6087
                          Density (g/cm3)  =   1.00411
                               Volume (L)  =   1.00143
                        Activity of water  =   0.997
                           Ionic strength  =   9.485e-02
                       Mass of water (kg)  =   1.000e+00
                 Total alkalinity (eq/kg)  =  -7.287e-16
                    Total carbon (mol/kg)  =   0.000e+00
                       Total CO2 (mol/kg)  =   0.000e+00
                      Temperature (deg C)  =   5.00
                  Electrical balance (eq)  =   4.792e-16
 Percent error, 100*(Cat-|An|)/(Cat+|An|)  =   0.00
                               Iterations  =   8
                                  Total H  = 1.110124e+02
                                  Total O  = 5.550622e+01

----------------------------Distribution of species----------------------------

                                               Log       Log       Log    mole V
   Species          Molality    Activity  Molality  Activity     Gamma   cm3/mol

   H+              5.381e-08   4.475e-08    -7.269    -7.349    -0.080      0.00
   OH-             5.381e-08   4.151e-08    -7.269    -7.382    -0.113     -5.20
   H2O             5.551e+01   9.968e-01     1.744    -0.001     0.000     18.02
Cl            9.485e-02
   Cl-             9.485e-02   7.363e-02    -1.023    -1.133    -0.110     17.19
H(0)          3.652e-17
   H2              1.826e-17   1.866e-17   -16.739   -16.729     0.009     28.63
Na            9.485e-02
   Na+             9.485e-02   7.530e-02    -1.023    -1.123    -0.100     -2.52
   NaOH            3.058e-19   3.126e-19   -18.515   -18.505     0.009     (0)  
O(0)          0.000e+00
   O2              0.000e+00   0.000e+00   -65.853   -65.843     0.009     28.29

------------------------------Saturation indices-------------------------------

	Phase               SI   log IAP   log K(278 K,   1 atm)

	H2(g)           -13.69    -16.73   -3.03  H2
	H2O(g)           -2.06     -0.00    2.06  H2O
	Halite           -3.78     -2.26    1.52  NaCl
	O2(g)           -63.13    -65.84   -2.71  O2


Reaction step 5.

Using solution 1.	
Using temperature 1.	
Using pressure 1.	
Using reaction 1.	

Reaction 1.	

	  1.000e-01 moles of the following reaction have been added:

	                 Relative
	Reactant            moles

	NaCl                 1.00000

	                 Relative
	Element             moles
	Cl                   1.00000
	Na                   1.00000

-----------------------------Solution composition------------------------------

	Elements           Molality       Moles

	Cl                1.000e-01   1.000e-01
	Na                1.000e-01   1.000e-01

----------------------------Description of solution----------------------------

                                       pH  =   7.349      Charge balance
                                       pe  =  -0.460      Adjusted to redox equilibrium
       Specific Conductance (uS/cm, 5 oC) = 6401
                          Density (g/cm3)  =   1.00433
                               Volume (L)  =   1.00151
                        Activity of water  =   0.997
                           Ionic strength  =   1.000e-01
                       Mass of water (kg)  =   1.000e+00
                 Total alkalinity (eq/kg)  =  -7.005e-16
                    Total carbon (mol/kg)  =   0.000e+00
                       Total CO2 (mol/kg)  =   0.000e+00
                      Temperature (deg C)  =   5.00
                  Electrical balance (eq)  =   3.997e-16
 Percent error, 100*(Cat-|An|)/(Cat+|An|)  =   0.00
                               Iterations  =   8
                                  Total H  = 1.110124e+02
                                  Total O  = 5.550622e+01

----------------------------Distribution of species----------------------------

                                               Log       Log       Log    mole V
   Species          Molality    Activity  Molality  Activity     Gamma   cm3/mol

   H+              5.401e-08   4.481e-08    -7.268    -7.349    -0.081      0.00
   OH-             5.401e-08   4.146e-08    -7.268    -7.382    -0.115     -5.18
   H2O             5.551e+01   9.966e-01     1.744    -0.001     0.000     18.02
Cl            1.000e-01
   Cl-             1.000e-01   7.725e-02    -1.000    -1.112    -0.112     17.20
H(0)          2.860e-17
   H2              1.430e-17   1.463e-17   -16.845   -16.835     0.010     28.63
Na            1.000e-01
   Na+             1.000e-01   7.909e-02    -1.000    -1.102    -0.102     -2.51
   NaOH            3.204e-19   3.279e-19   -18.494   -18.484     0.010     (0)  
O(0)          0.000e+00
   O2              0.000e+00   0.000e+00   -65.642   -65.632     0.010     28.29

------------------------------Saturation indices-------------------------------

	Phase               SI   log IAP   log K(278 K,   1 atm)

	H2(g)           -13.80    -16.83   -3.03  H2
	H2O(g)           -2.06     -0.00    2.06  H2O
	Halite           -3.74     -2.21    1.52  NaCl
	O2(g)           -62.92    -65.63   -2.71  O2


Reaction step 6.

Using solution 1.	
Using temperature 1.	
Using pressure 1.	
Using reaction 1.	

Reaction 1.	

	  1.243e-01 moles of the following reaction have been added:

	                 Relative
	Reactant            moles

	NaCl                 1.00000

	                 Relative
	Element             moles
	Cl                   1.00000
	Na                   1.00000

-----------------------------Solution composition------------------------------

	Elements           Molality       Moles

	Cl                1.243e-01   1.243e-01
	Na                1.243e-01   1.243e-01

----------------------------Description of solution----------------------------

                                       pH  =   7.346      Charge balance
                                       pe  =  -0.511      Adjusted to redox equilibrium
       Specific Conductance (uS/cm, 5 oC) = 7868
                          Density (g/cm3)  =   1.00538
                               Volume (L)  =   1.00187
                        Activity of water  =   0.996
                           Ionic strength  =   1.243e-01
                       Mass of water (kg)  =   1.000e+00
                 Total alkalinity (eq/kg)  =   3.563e-17
                    Total carbon (mol/kg)  =   0.000e+00
                       Total CO2 (mol/kg)  =   0.000e+00
                      Temperature (deg C)  =   5.00
                  Electrical balance (eq)  =  -1.346e-17
 Percent error, 100*(Cat-|An|)/(Cat+|An|)  =  -0.00
                               Iterations  =   9
                                  Total H  = 1.110124e+02
                                  Total O  = 5.550622e+01

----------------------------Distribution of species----------------------------

                                               Log       Log       Log    mole V
   Species          Molality    Activity  Molality  Activity     Gamma   cm3/mol

   OH-             5.487e-08   4.121e-08    -7.261    -7.385    -0.124     -5.13
   H+              5.487e-08   4.504e-08    -7.261    -7.346    -0.086      0.00
   H2O             5.551e+01   9.958e-01     1.744    -0.002     0.000     18.02
Cl            1.243e-01
   Cl-             1.243e-01   9.407e-02    -0.906    -1.027    -0.121     17.23
H(0)          3.628e-17
   H2              1.814e-17   1.866e-17   -16.741   -16.729     0.012     28.63
Na            1.243e-01
   Na+             1.243e-01   9.679e-02    -0.906    -1.014    -0.108     -2.46
   NaOH            3.876e-19   3.989e-19   -18.412   -18.399     0.012     (0)  
O(0)          0.000e+00
   O2              0.000e+00   0.000e+00   -65.857   -65.844     0.012     28.29

------------------------------Saturation indices-------------------------------

	Phase               SI   log IAP   log K(278 K,   1 atm)

	H2(g)           -13.69    -16.73   -3.03  H2
	H2O(g)           -2.06     -0.00    2.06  H2O
	Halite           -3.56     -2.04    1.52  NaCl
	O2(g)           -63.13    -65.84   -2.71  O2


Reaction step 7.

Using solution 1.	
Using temperature 1.	
Using pressure 1.	
Using reaction 1.	

Reaction 1.	

	  1.615e-01 moles of the following reaction have been added:

	                 Relative
	Reactant            moles

	NaCl                 1.00000

	                 Relative
	Element             moles
	Cl                   1.00000
	Na                   1.00000

-----------------------------Solution composition------------------------------

	Elements           Molality       Moles

	Cl                1.615e-01   1.615e-01
	Na                1.615e-01   1.615e-01

----------------------------Description of solution----------------------------

                                       pH  =   7.343      Charge balance
                                       pe  =  -0.436      Adjusted to redox equilibrium
       Specific Conductance (uS/cm, 5 oC) = 10087
                          Density (g/cm3)  =   1.00698
                               Volume (L)  =   1.00244
                        Activity of water  =   0.995
                           Ionic strength  =   1.615e-01
                       Mass of water (kg)  =   1.000e+00
                 Total alkalinity (eq/kg)  =   2.580e-17
                    Total carbon (mol/kg)  =   0.000e+00
                       Total CO2 (mol/kg)  =   0.000e+00
                      Temperature (deg C)  =   5.00
                  Electrical balance (eq)  =  -5.541e-17
 Percent error, 100*(Cat-|An|)/(Cat+|An|)  =  -0.00
                               Iterations  =   9
                                  Total H  = 1.110124e+02
                                  Total O  = 5.550622e+01

----------------------------Distribution of species----------------------------

                                               Log       Log       Log    mole V
   Species          Molality    Activity  Molality  Activity     Gamma   cm3/mol

   OH-             5.594e-08   4.088e-08    -7.252    -7.388    -0.136     -5.05
   H+              5.594e-08   4.534e-08    -7.252    -7.343    -0.091      0.00
   H2O             5.551e+01   9.945e-01     1.744    -0.002     0.000     18.02
Cl            1.615e-01
   Cl-             1.615e-01   1.192e-01    -0.792    -0.924    -0.132     17.27
H(0)          2.582e-17
   H2              1.291e-17   1.340e-17   -16.889   -16.873     0.016     28.63
Na            1.615e-01
   Na+             1.615e-01   1.235e-01    -0.792    -0.908    -0.116     -2.40
   NaOH            4.866e-19   5.050e-19   -18.313   -18.297     0.016     (0)  
O(0)          0.000e+00
   O2              0.000e+00   0.000e+00   -65.574   -65.557     0.016     28.29

------------------------------Saturation indices-------------------------------

	Phase               SI   log IAP   log K(278 K,   1 atm)

	H2(g)           -13.84    -16.87   -3.03  H2
	H2O(g)           -2.06     -0.00    2.06  H2O
	Halite           -3.35     -1.83    1.52  NaCl
	O2(g)           -62.84    -65.56   -2.71  O2


Reaction step 8.

Using solution 1.	
Using temperature 1.	
Using pressure 1.	
Using reaction 1.	

Reaction 1.	

	  1.663e-01 moles of the following reaction have been added:

	                 Relative
	Reactant            moles

	NaCl                 1.00000

	                 Relative
	Element             moles
	Cl                   1.00000
	Na                   1.00000

-----------------------------Solution composition------------------------------

	Elements           Molality       Moles

	Cl                1.663e-01   1.663e-01
	Na                1.663e-01   1.663e-01

----------------------------Description of solution----------------------------

                                       pH  =   7.343      Charge balance
                                       pe  =  -0.516      Adjusted to redox equilibrium
       Specific Conductance (uS/cm, 5 oC) = 10373
                          Density (g/cm3)  =   1.00719
                               Volume (L)  =   1.00251
                        Activity of water  =   0.994
                           Ionic strength  =   1.663e-01
                       Mass of water (kg)  =   1.000e+00
                 Total alkalinity (eq/kg)  =  -6.123e-16
                    Total carbon (mol/kg)  =   0.000e+00
                       Total CO2 (mol/kg)  =   0.000e+00
                      Temperature (deg C)  =   5.00
                  Electrical balance (eq)  =  -5.480e-15
 Percent error, 100*(Cat-|An|)/(Cat+|An|)  =  -0.00
                               Iterations  =   8
                                  Total H  = 1.110124e+02
                                  Total O  = 5.550622e+01

----------------------------Distribution of species----------------------------

                                               Log       Log       Log    mole V
   Species          Molality    Activity  Molality  Activity     Gamma   cm3/mol

   H+              5.607e-08   4.538e-08    -7.251    -7.343    -0.092      0.00
   OH-             5.607e-08   4.084e-08    -7.251    -7.389    -0.138     -5.04
   H2O             5.551e+01   9.943e-01     1.744    -0.002     0.000     18.02
Cl            1.663e-01
   Cl-             1.663e-01   1.224e-01    -0.779    -0.912    -0.133     17.27
H(0)          3.737e-17
   H2              1.869e-17   1.942e-17   -16.728   -16.712     0.017     28.63
Na            1.663e-01
   Na+             1.663e-01   1.270e-01    -0.779    -0.896    -0.117     -2.39
   NaOH            4.991e-19   5.186e-19   -18.302   -18.285     0.017     (0)  
O(0)          0.000e+00
   O2              0.000e+00   0.000e+00   -65.896   -65.880     0.017     28.29

------------------------------Saturation indices-------------------------------

	Phase               SI   log IAP   log K(278 K,   1 atm)

	H2(g)           -13.68    -16.71   -3.03  H2
	H2O(g)           -2.06     -0.00    2.06  H2O
	Halite           -3.33     -1.81    1.52  NaCl
	O2(g)           -63.17    -65.88   -2.71  O2


Reaction step 9.

Using solution 1.	
Using temperature 1.	
Using pressure 1.	
Using reaction 1.	

Reaction 1.	

	  1.985e-01 moles of the following reaction have been added:

	                 Relative
	Reactant            moles

	NaCl                 1.00000

	                 Relative
	Element             moles
	Cl                   1.00000
	Na                   1.00000

-----------------------------Solution composition------------------------------

	Elements           Molality       Moles

	Cl                1.985e-01   1.985e-01
	Na                1.985e-01   1.985e-01

----------------------------Description of solution----------------------------

                                       pH  =   7.341      Charge balance
                                       pe  =  -0.518      Adjusted to redox equilibrium
       Specific Conductance (uS/cm, 5 oC) = 12269
                          Density (g/cm3)  =   1.00857
                               Volume (L)  =   1.00301
                        Activity of water  =   0.993
                           Ionic strength  =   1.985e-01
                       Mass of water (kg)  =   1.000e+00
                 Total alkalinity (eq/kg)  =   3.627e-17
                    Total carbon (mol/kg)  =   0.000e+00
                       Total CO2 (mol/kg)  =   0.000e+00
                      Temperature (deg C)  =   5.00
                  Electrical balance (eq)  =  -3.469e-17
 Percent error, 100*(Cat-|An|)/(Cat+|An|)  =  -0.00
                               Iterations  =  11
                                  Total H  = 1.110124e+02
                                  Total O  = 5.550622e+01

----------------------------Distribution of species----------------------------

                                               Log       Log       Log    mole V
   Species          Molality    Activity  Molality  Activity     Gamma   cm3/mol

   OH-             5.683e-08   4.059e-08    -7.245    -7.392    -0.146     -4.98
   H+              5.683e-08   4.560e-08    -7.245    -7.341    -0.096      0.00
   H2O             5.551e+01   9.933e-01     1.744    -0.003     0.000     18.02
Cl            1.985e-01
   Cl-             1.985e-01   1.435e-01    -0.702    -0.843    -0.141     17.30
H(0)          3.776e-17
   H2              1.888e-17   1.976e-17   -16.724   -16.704     0.020     28.63
Na            1.985e-01
   Na+             1.985e-01   1.498e-01    -0.702    -0.824    -0.122     -2.34
   NaOH            5.811e-19   6.083e-19   -18.236   -18.216     0.020     (0)  
O(0)          0.000e+00
   O2              0.000e+00   0.000e+00   -65.916   -65.896     0.020     28.29

------------------------------Saturation indices-------------------------------

	Phase               SI   log IAP   log K(278 K,   1 atm)

	H2(g)           -13.67    -16.70   -3.03  H2
	H2O(g)           -2.06     -0.00    2.06  H2O
	Halite           -3.19     -1.67    1.52  NaCl
	O2(g)           -63.18    -65.90   -2.71  O2


Reaction step 10.

Using solution 1.	
Using temperature 1.	
Using pressure 1.	
Using reaction 1.	

Reaction 1.	

	  2.000e-01 moles of the following reaction have been added:

	                 Relative
	Reactant            moles

	NaCl                 1.00000

	                 Relative
	Element             moles
	Cl                   1.00000
	Na                   1.00000

-----------------------------Solution composition------------------------------

	Elements           Molality       Moles

	Cl                2.000e-01   2.000e-01
	Na                2.000e-01   2.000e-01

----------------------------Description of solution----------------------------

                                       pH  =   7.341      Charge balance
                                       pe  =  -0.460      Adjusted to redox equilibrium
       Specific Conductance (uS/cm, 5 oC) = 12357
                          Density (g/cm3)  =   1.00863
                               Volume (L)  =   1.00303
                        Activity of water  =   0.993
                           Ionic strength  =   2.000e-01
                       Mass of water (kg)  =   1.000e+00
                 Total alkalinity (eq/kg)  =  -5.769e-16
                    Total carbon (mol/kg)  =   0.000e+00
                       Total CO2 (mol/kg)  =   0.000e+00
                      Temperature (deg C)  =   5.00
                  Electrical balance (eq)  =  -1.624e-14
 Percent error, 100*(Cat-|An|)/(Cat+|An|)  =  -0.00
                               Iterations  =   8
                                  Total H  = 1.110124e+02
                                  Total O  = 5.550622e+01

----------------------------Distribution of species----------------------------

                                               Log       Log       Log    mole V
   Species          Molality    Activity  Molality  Activity     Gamma   cm3/mol

   H+              5.686e-08   4.561e-08    -7.245    -7.341    -0.096      0.00
   OH-             5.686e-08   4.058e-08    -7.245    -7.392    -0.146     -4.97
   H2O             5.551e+01   9.932e-01     1.744    -0.003     0.000     18.02
Cl            2.000e-01
   Cl-             2.000e-01   1.445e-01    -0.699    -0.840    -0.141     17.31
H(0)          2.891e-17
   H2              1.446e-17   1.514e-17   -16.840   -16.820     0.020     28.63
Na            2.000e-01
   Na+             2.000e-01   1.509e-01    -0.699    -0.821    -0.122     -2.34
   NaOH            5.849e-19   6.125e-19   -18.233   -18.213     0.020     (0)  
O(0)          0.000e+00
   O2              0.000e+00   0.000e+00   -65.685   -65.665     0.020     28.29

------------------------------Saturation indices-------------------------------

	Phase               SI   log IAP   log K(278 K,   1 atm)

	H2(g)           -13.79    -16.82   -3.03  H2
	H2O(g)           -2.06     -0.00    2.06  H2O
	Halite           -3.18     -1.66    1.52  NaCl
	O2(g)           -62.95    -65.66   -2.71  O2


Reaction step 11.

Using solution 1.	
Using temperature 1.	
Using pressure 1.	
Using reaction 1.	

Reaction 1.	

	  2.572e-01 moles of the following reaction have been added:

	                 Relative
	Reactant            moles

	NaCl                 1.00000

	                 Relative
	Element             moles
	Cl                   1.00000
	Na                   1.00000

-----------------------------Solution composition------------------------------

	Elements           Molality       Moles

	Cl                2.572e-01   2.572e-01
	Na                2.572e-01   2.572e-01

----------------------------Description of solution----------------------------

                                       pH  =   7.338      Charge balance
                                       pe  =  -0.514      Adjusted to redox equilibrium
       Specific Conductance (uS/cm, 5 oC) = 15692
                          Density (g/cm3)  =   1.01107
                               Volume (L)  =   1.00392
                        Activity of water  =   0.991
                           Ionic strength  =   2.572e-01
                       Mass of water (kg)  =   1.000e+00
                 Total alkalinity (eq/kg)  =   2.551e-17
                    Total carbon (mol/kg)  =   0.000e+00
                       Total CO2 (mol/kg)  =   0.000e+00
                      Temperature (deg C)  =   5.00
                  Electrical balance (eq)  =  -2.235e-17
 Percent error, 100*(Cat-|An|)/(Cat+|An|)  =  -0.00
                               Iterations  =   9
                                  Total H  = 1.110124e+02
                                  Total O  = 5.550622e+01

----------------------------Distribution of species----------------------------

                                               Log       Log       Log    mole V
   Species          Molality    Activity  Molality  Activity     Gamma   cm3/mol

   OH-             5.797e-08   4.021e-08    -7.237    -7.396    -0.159     -4.86
   H+              5.797e-08   4.595e-08    -7.237    -7.338    -0.101      0.00
   H2O             5.551e+01   9.913e-01     1.744    -0.004     0.000     18.02
Cl            2.572e-01
   Cl-             2.572e-01   1.811e-01    -0.590    -0.742    -0.152     17.36
H(0)          3.722e-17
   H2              1.861e-17   1.975e-17   -16.730   -16.704     0.026     28.63
Na            2.572e-01
   Na+             2.572e-01   1.913e-01    -0.590    -0.718    -0.129     -2.26
   NaOH            7.248e-19   7.690e-19   -18.140   -18.114     0.026     (0)  
O(0)          0.000e+00
   O2              0.000e+00   0.000e+00   -65.923   -65.897     0.026     28.29

------------------------------Saturation indices-------------------------------

	Phase               SI   log IAP   log K(278 K,   1 atm)

	H2(g)           -13.67    -16.70   -3.03  H2
	H2O(g)           -2.06     -0.00    2.06  H2O
	Halite           -2.98     -1.46    1.52  NaCl
	O2(g)           -63.18    -65.90   -2.71  O2


Reaction step 12.

Using solution 1.	
Using temperature 1.	
Using pressure 1.	
Using reaction 1.	

Reaction 1.	

	  3.200e-01 moles of the following reaction have been added:

	                 Relative
	Reactant            moles

	NaCl                 1.00000

	                 Relative
	Element             moles
	Cl                   1.00000
	Na                   1.00000

-----------------------------Solution composition------------------------------

	Elements           Molality       Moles

	Cl                3.200e-01   3.200e-01
	Na                3.200e-01   3.200e-01

----------------------------Description of solution----------------------------

                                       pH  =   7.335      Charge balance
                                       pe  =  -0.590      Adjusted to redox equilibrium
       Specific Conductance (uS/cm, 5 oC) = 19313
                          Density (g/cm3)  =   1.01373
                               Volume (L)  =   1.00491
                        Activity of water  =   0.989
                           Ionic strength  =   3.200e-01
                       Mass of water (kg)  =   1.000e+00
                 Total alkalinity (eq/kg)  =  -3.022e-16
                    Total carbon (mol/kg)  =   0.000e+00
                       Total CO2 (mol/kg)  =   0.000e+00
                      Temperature (deg C)  =   5.00
                  Electrical balance (eq)  =  -1.235e-13
 Percent error, 100*(Cat-|An|)/(Cat+|An|)  =  -0.00
                               Iterations  =   9
                                  Total H  = 1.110124e+02
                                  Total O  = 5.550622e+01

----------------------------Distribution of species----------------------------

                                               Log       Log       Log    mole V
   Species          Molality    Activity  Molality  Activity     Gamma   cm3/mol

   H+              5.895e-08   4.626e-08    -7.230    -7.335    -0.105      0.00
   OH-             5.895e-08   3.985e-08    -7.230    -7.400    -0.170     -4.75
   H2O             5.551e+01   9.891e-01     1.744    -0.005     0.000     18.02
Cl            3.200e-01
   Cl-             3.200e-01   2.203e-01    -0.495    -0.657    -0.162     17.41
H(0)          5.266e-17
   H2              2.633e-17   2.834e-17   -16.580   -16.548     0.032     28.63
Na            3.200e-01
   Na+             3.200e-01   2.354e-01    -0.495    -0.628    -0.133     -2.19
   NaOH            8.713e-19   9.379e-19   -18.060   -18.028     0.032     (0)  
O(0)          0.000e+00
   O2              0.000e+00   0.000e+00   -66.245   -66.213     0.032     28.29

------------------------------Saturation indices-------------------------------

	Phase               SI   log IAP   log K(278 K,   1 atm)

	H2(g)           -13.51    -16.55   -3.03  H2
	H2O(g)           -2.06     -0.00    2.06  H2O
	Halite           -2.81     -1.29    1.52  NaCl
	O2(g)           -63.50    -66.21   -2.71  O2


Reaction step 13.

Using solution 1.	
Using temperature 1.	
Using pressure 1.	
Using reaction 1.	

Reaction 1.	

	  3.331e-01 moles of the following reaction have been added:

	                 Relative
	Reactant            moles

	NaCl                 1.00000

	                 Relative
	Element             moles
	Cl                   1.00000
	Na                   1.00000

-----------------------------Solution composition------------------------------

	Elements           Molality       Moles

	Cl                3.331e-01   3.331e-01
	Na                3.331e-01   3.331e-01

----------------------------Description of solution----------------------------

                                       pH  =   7.334      Charge balance
                                       pe  =  -0.529      Adjusted to redox equilibrium
       Specific Conductance (uS/cm, 5 oC) = 20067
                          Density (g/cm3)  =   1.01428
                               Volume (L)  =   1.00511
                        Activity of water  =   0.989
                           Ionic strength  =   3.331e-01
                       Mass of water (kg)  =   1.000e+00
                 Total alkalinity (eq/kg)  =   3.967e-17
                    Total carbon (mol/kg)  =   0.000e+00
                       Total CO2 (mol/kg)  =   0.000e+00
                      Temperature (deg C)  =   5.00
                  Electrical balance (eq)  =  -3.984e-18
 Percent error, 100*(Cat-|An|)/(Cat+|An|)  =  -0.00
                               Iterations  =   9
                                  Total H  = 1.110124e+02
                                  Total O  = 5.550622e+01

----------------------------Distribution of species----------------------------

                                               Log       Log       Log    mole V
   Species          Molality    Activity  Molality  Activity     Gamma   cm3/mol

   OH-             5.913e-08   3.978e-08    -7.228    -7.400    -0.172     -4.73
   H+              5.913e-08   4.632e-08    -7.228    -7.334    -0.106      0.00
   H2O             5.551e+01   9.887e-01     1.744    -0.005     0.000     18.02
Cl            3.331e-01
   Cl-             3.331e-01   2.284e-01    -0.477    -0.641    -0.164     17.42
H(0)          3.976e-17
   H2              1.988e-17   2.146e-17   -16.702   -16.668     0.033     28.63
Na            3.331e-01
   Na+             3.331e-01   2.446e-01    -0.477    -0.612    -0.134     -2.17
   NaOH            9.011e-19   9.730e-19   -18.045   -18.012     0.033     (0)  
O(0)          0.000e+00
   O2              0.000e+00   0.000e+00   -66.005   -65.972     0.033     28.29

------------------------------Saturation indices-------------------------------

	Phase               SI   log IAP   log K(278 K,   1 atm)

	H2(g)           -13.63    -16.67   -3.03  H2
	H2O(g)           -2.06     -0.00    2.06  H2O
	Halite           -2.78     -1.25    1.52  NaCl
	O2(g)           -63.26    -65.97   -2.71  O2


Reaction step 14.

Using solution 1.	
Using temperature 1.	
Using pressure 1.	
Using reaction 1.	

Reaction 1.	

	  3.564e-01 moles of the following reaction have been added:

	                 Relative
	Reactant            moles

	NaCl                 1.00000

	                 Relative
	Element             moles
	Cl                   1.00000
	Na                   1.00000

-----------------------------Solution composition------------------------------

	Elements           Molality       Moles

	Cl                3.564e-01   3.564e-01
	Na                3.564e-01   3.564e-01

----------------------------Description of solution----------------------------

                                       pH  =   7.333      Charge balance
                                       pe  =  -0.440      Adjusted to redox equilibrium
       Specific Conductance (uS/cm, 5 oC) = 21403
                          Density (g/cm3)  =   1.01526
                               Volume (L)  =   1.00549
                        Activity of water  =   0.988
                           Ionic strength  =   3.564e-01
                       Mass of water (kg)  =   1.000e+00
                 Total alkalinity (eq/kg)  =   2.590e-17
                    Total carbon (mol/kg)  =   0.000e+00
                       Total CO2 (mol/kg)  =   0.000e+00
                      Temperature (deg C)  =   5.00
                  Electrical balance (eq)  =  -6.112e-17
 Percent error, 100*(Cat-|An|)/(Cat+|An|)  =  -0.00
                               Iterations  =   9
                                  Total H  = 1.110124e+02
                                  Total O  = 5.550622e+01

----------------------------Distribution of species----------------------------

                                               Log       Log       Log    mole V
   Species          Molality    Activity  Molality  Activity     Gamma   cm3/mol

   OH-             5.944e-08   3.967e-08    -7.226    -7.402    -0.176     -4.68
   H+              5.944e-08   4.642e-08    -7.226    -7.333    -0.107      0.00
   H2O             5.551e+01   9.879e-01     1.744    -0.005     0.000     18.02
Cl            3.564e-01
   Cl-             3.564e-01   2.426e-01    -0.448    -0.615    -0.167     17.43
H(0)          2.635e-17
   H2              1.317e-17   1.430e-17   -16.880   -16.845     0.036     28.63
Na            3.564e-01
   Na+             3.564e-01   2.610e-01    -0.448    -0.583    -0.135     -2.15
   NaOH            9.536e-19   1.035e-18   -18.021   -17.985     0.036     (0)  
O(0)          0.000e+00
   O2              0.000e+00   0.000e+00   -65.656   -65.620     0.036     28.29

------------------------------Saturation indices-------------------------------

	Phase               SI   log IAP   log K(278 K,   1 atm)

	H2(g)           -13.81    -16.84   -3.03  H2
	H2O(g)           -2.06     -0.01    2.06  H2O
	Halite           -2.72     -1.20    1.52  NaCl
	O2(g)           -62.91    -65.62   -2.71  O2


Reaction step 15.

Using solution 1.	
Using temperature 1.	
Using pressure 1.	
Using reaction 1.	

Reaction 1.	

	  4.758e-01 moles of the following reaction have been added:

	                 Relative
	Reactant            moles

	NaCl                 1.00000

	                 Relative
	Element             moles
	Cl                   1.00000
	Na                   1.00000

-----------------------------Solution composition------------------------------

	Elements           Molality       Moles

	Cl                4.758e-01   4.758e-01
	Na                4.758e-01   4.758e-01

----------------------------Description of solution----------------------------

                                       pH  =   7.329      Charge balance
                                       pe  =  -0.590      Adjusted to redox equilibrium
       Specific Conductance (uS/cm, 5 oC) = 27281
                          Density (g/cm3)  =   1.02025
                               Volume (L)  =   1.00741
                        Activity of water  =   0.984
                           Ionic strength  =   4.758e-01
                       Mass of water (kg)  =   1.000e+00
                 Total alkalinity (eq/kg)  =   4.829e-17
                    Total carbon (mol/kg)  =   0.000e+00
                       Total CO2 (mol/kg)  =   0.000e+00
                      Temperature (deg C)  =   5.00
                  Electrical balance (eq)  =  -3.600e-17
 Percent error, 100*(Cat-|An|)/(Cat+|An|)  =  -0.00
                               Iterations  =   9
                                  Total H  = 1.110124e+02
                                  Total O  = 5.550622e+01

----------------------------Distribution of species----------------------------

                                               Log       Log       Log    mole V
   Species          Molality    Activity  Molality  Activity     Gamma   cm3/mol

   OH-             6.075e-08   3.914e-08    -7.216    -7.407    -0.191     -4.48
   H+              6.075e-08   4.685e-08    -7.216    -7.329    -0.113      0.00
   H2O             5.551e+01   9.838e-01     1.744    -0.007     0.000     18.02
Cl            4.758e-01
   Cl-             4.758e-01   3.145e-01    -0.323    -0.502    -0.180     17.52
H(0)          5.229e-17
   H2              2.614e-17   2.917e-17   -16.583   -16.535     0.048     28.63
Na            4.758e-01
   Na+             4.758e-01   3.455e-01    -0.323    -0.462    -0.139     -2.02
   NaOH            1.212e-18   1.352e-18   -17.916   -17.869     0.048     (0)  
O(0)          0.000e+00
   O2              0.000e+00   0.000e+00   -66.290   -66.243     0.048     28.29

------------------------------Saturation indices-------------------------------

	Phase               SI   log IAP   log K(278 K,   1 atm)

	H2(g)           -13.50    -16.54   -3.03  H2
	H2O(g)           -2.06     -0.01    2.06  H2O
	Halite           -2.49     -0.96    1.52  NaCl
	O2(g)           -63.53    -66.24   -2.71  O2


Reaction step 16.

Using solution 1.	
Using temperature 1.	
Using pressure 1.	
Using reaction 1.	

Reaction 1.	

	  4.832e-01 moles of the following reaction have been added:

	                 Relative
	Reactant            moles

	NaCl                 1.00000

	                 Relative
	Element             moles
	Cl                   1.00000
	Na                   1.00000

-----------------------------Solution composition------------------------------

	Elements           Molality       Moles

	Cl                4.832e-01   4.832e-01
	Na                4.832e-01   4.832e-01

----------------------------Description of solution----------------------------

                                       pH  =   7.329      Charge balance
                                       pe  =  -0.576      Adjusted to redox equilibrium
       Specific Conductance (uS/cm, 5 oC) = 27632
                          Density (g/cm3)  =   1.02055
                               Volume (L)  =   1.00753
                        Activity of water  =   0.984
                           Ionic strength  =   4.832e-01
                       Mass of water (kg)  =   1.000e+00
                 Total alkalinity (eq/kg)  =  -7.114e-16
                    Total carbon (mol/kg)  =   0.000e+00
                       Total CO2 (mol/kg)  =   0.000e+00
                      Temperature (deg C)  =   5.00
                  Electrical balance (eq)  =  -1.970e-12
 Percent error, 100*(Cat-|An|)/(Cat+|An|)  =  -0.00
                               Iterations  =   8
                                  Total H  = 1.110124e+02
                                  Total O  = 5.550622e+01

----------------------------Distribution of species----------------------------

                                               Log       Log       Log    mole V
   Species          Molality    Activity  Molality  Activity     Gamma   cm3/mol

   H+              6.082e-08   4.687e-08    -7.216    -7.329    -0.113      0.00
   OH-             6.082e-08   3.911e-08    -7.216    -7.408    -0.192     -4.47
   H2O             5.551e+01   9.836e-01     1.744    -0.007     0.000     18.02
Cl            4.832e-01
   Cl-             4.832e-01   3.189e-01    -0.316    -0.496    -0.180     17.52
H(0)          4.880e-17
   H2              2.440e-17   2.727e-17   -16.613   -16.564     0.048     28.63
Na            4.832e-01
   Na+             4.832e-01   3.508e-01    -0.316    -0.455    -0.139     -2.01
   NaOH            1.228e-18   1.372e-18   -17.911   -17.863     0.048     (0)  
O(0)          0.000e+00
   O2              0.000e+00   0.000e+00   -66.233   -66.184     0.048     28.29

------------------------------Saturation indices-------------------------------

	Phase               SI   log IAP   log K(278 K,   1 atm)

	H2(g)           -13.53    -16.56   -3.03  H2
	H2O(g)           -2.06     -0.01    2.06  H2O
	Halite           -2.47     -0.95    1.52  NaCl
	O2(g)           -63.47    -66.18   -2.71  O2


Reaction step 17.

Using solution 1.	
Using temperature 1.	
Using pressure 1.	
Using reaction 1.	

Reaction 1.	

	  5.000e-01 moles of the following reaction have been added:

	                 Relative
	Reactant            moles

	NaCl                 1.00000

	                 Relative
	Element             moles
	Cl                   1.00000
	Na                   1.00000

-----------------------------Solution composition------------------------------

	Elements           Molality       Moles

	Cl                5.000e-01   5.000e-01
	Na                5.000e-01   5.000e-01

----------------------------Description of solution----------------------------

                                       pH  =   7.329      Charge balance
                                       pe  =  -0.418      Adjusted to redox equilibrium
       Specific Conductance (uS/cm, 5 oC) = 28420
                          Density (g/cm3)  =   1.02125
                               Volume (L)  =   1.00780
                        Activity of water  =   0.983
                           Ionic strength  =   5.000e-01
                       Mass of water (kg)  =   1.000e+00
                 Total alkalinity (eq/kg)  =   9.343e-18
                    Total carbon (mol/kg)  =   0.000e+00
                       Total CO2 (mol/kg)  =   0.000e+00
                      Temperature (deg C)  =   5.00
                  Electrical balance (eq)  =  -2.403e-16
 Percent error, 100*(Cat-|An|)/(Cat+|An|)  =  -0.00
                               Iterations  =   9
                                  Total H  = 1.110124e+02
                                  Total O  = 5.550622e+01

----------------------------Distribution of species----------------------------

                                               Log       Log       Log    mole V
   Species          Molality    Activity  Molality  Activity     Gamma   cm3/mol

   OH-             6.098e-08   3.905e-08    -7.215    -7.408    -0.194     -4.44
   H+              6.098e-08   4.692e-08    -7.215    -7.329    -0.114      0.00
   H2O             5.551e+01   9.830e-01     1.744    -0.007     0.000     18.02
Cl            5.000e-01
   Cl-             5.000e-01   3.289e-01    -0.301    -0.483    -0.182     17.53
H(0)          2.361e-17
   H2              1.180e-17   1.324e-17   -16.928   -16.878     0.050     28.63
Na            5.000e-01
   Na+             5.000e-01   3.628e-01    -0.301    -0.440    -0.139     -1.99
   NaOH            1.263e-18   1.417e-18   -17.899   -17.849     0.050     (0)  
O(0)          0.000e+00
   O2              0.000e+00   0.000e+00   -65.607   -65.557     0.050     28.29

------------------------------Saturation indices-------------------------------

	Phase               SI   log IAP   log K(278 K,   1 atm)

	H2(g)           -13.84    -16.88   -3.03  H2
	H2O(g)           -2.06     -0.01    2.06  H2O
	Halite           -2.45     -0.92    1.52  NaCl
	O2(g)           -62.84    -65.56   -2.71  O2


Reaction step 18.

Using solution 1.	
Using temperature 1.	
Using pressure 1.	
Using reaction 1.	

Reaction 1.	

	  5.012e-01 moles of the following reaction have been added:

	                 Relative
	Reactant            moles

	NaCl                 1.00000

	                 Relative
	Element             moles
	Cl                   1.00000
	Na                   1.00000

-----------------------------Solution composition------------------------------

	Elements           Molality       Moles

	Cl                5.012e-01   5.012e-01
	Na                5.012e-01   5.012e-01

----------------------------Description of solution----------------------------

                                       pH  =   7.329      Charge balance
                                       pe  =  -0.139      Adjusted to redox equilibrium
       Specific Conductance (uS/cm, 5 oC) = 28476
                          Density (g/cm3)  =   1.02130
                               Volume (L)  =   1.00782
                        Activity of water  =   0.983
                           Ionic strength  =   5.012e-01
                       Mass of water (kg)  =   1.000e+00
                 Total alkalinity (eq/kg)  =  -7.834e-17
                    Total carbon (mol/kg)  =   0.000e+00
                       Total CO2 (mol/kg)  =   0.000e+00
                      Temperature (deg C)  =   5.00
                  Electrical balance (eq)  =  -1.504e-13
 Percent error, 100*(Cat-|An|)/(Cat+|An|)  =  -0.00
                               Iterations  =  13
                                  Total H  = 1.110124e+02
                                  Total O  = 5.550622e+01

----------------------------Distribution of species----------------------------

                                               Log       Log       Log    mole V
   Species          Molality    Activity  Molality  Activity     Gamma   cm3/mol

   H+              6.099e-08   4.693e-08    -7.215    -7.329    -0.114      0.00
   OH-             6.099e-08   3.904e-08    -7.215    -7.408    -0.194     -4.44
   H2O             5.551e+01   9.830e-01     1.744    -0.007     0.000     18.02
Cl            5.012e-01
   Cl-             5.012e-01   3.296e-01    -0.300    -0.482    -0.182     17.53
H(0)          6.531e-18
   H2              3.266e-18   3.665e-18   -17.486   -17.436     0.050     28.63
Na            5.012e-01
   Na+             5.012e-01   3.637e-01    -0.300    -0.439    -0.139     -1.99
   NaOH            1.265e-18   1.420e-18   -17.898   -17.848     0.050     (0)  
O(0)          0.000e+00
   O2              0.000e+00   0.000e+00   -64.492   -64.442     0.050     28.29

------------------------------Saturation indices-------------------------------

	Phase               SI   log IAP   log K(278 K,   1 atm)

	H2(g)           -14.40    -17.44   -3.03  H2
	H2O(g)           -2.06     -0.01    2.06  H2O
	Halite           -2.44     -0.92    1.52  NaCl
	O2(g)           -61.73    -64.44   -2.71  O2


Reaction step 19.

Using solution 1.	
Using temperature 1.	
Using pressure 1.	
Using reaction 1.	

Reaction 1.	

	  5.019e-01 moles of the following reaction have been added:

	                 Relative
	Reactant            moles

	NaCl                 1.00000

	                 Relative
	Element             moles
	Cl                   1.00000
	Na                   1.00000

-----------------------------Solution composition------------------------------

	Elements           Molality       Moles

	Cl                5.019e-01   5.019e-01
	Na                5.019e-01   5.019e-01

----------------------------Description of solution----------------------------

                                       pH  =   7.329      Charge balance
                                       pe  =  -0.623      Adjusted to redox equilibrium
       Specific Conductance (uS/cm, 5 oC) = 28509
                          Density (g/cm3)  =   1.02133
                               Volume (L)  =   1.00784
                        Activity of water  =   0.983
                           Ionic strength  =   5.019e-01
                       Mass of water (kg)  =   1.000e+00
                 Total alkalinity (eq/kg)  =  -4.640e-17
                    Total carbon (mol/kg)  =   0.000e+00
                       Total CO2 (mol/kg)  =   0.000e+00
                      Temperature (deg C)  =   5.00
                  Electrical balance (eq)  =  -2.728e-13
 Percent error, 100*(Cat-|An|)/(Cat+|An|)  =  -0.00
                               Iterations  =  16
                                  Total H  = 1.110124e+02
                                  Total O  = 5.550622e+01

----------------------------Distribution of species----------------------------

                                               Log       Log       Log    mole V
   Species          Molality    Activity  Molality  Activity     Gamma   cm3/mol

   H+              6.100e-08   4.693e-08    -7.215    -7.329    -0.114      0.00
   OH-             6.100e-08   3.904e-08    -7.215    -7.408    -0.194     -4.44
   H2O             5.551e+01   9.829e-01     1.744    -0.007     0.000     18.02
Cl            5.019e-01
   Cl-             5.019e-01   3.300e-01    -0.299    -0.481    -0.182     17.53
H(0)          6.066e-17
   H2              3.033e-17   3.405e-17   -16.518   -16.468     0.050     28.63
Na            5.019e-01
   Na+             5.019e-01   3.642e-01    -0.299    -0.439    -0.139     -1.99
   NaOH            1.267e-18   1.422e-18   -17.897   -17.847     0.050     (0)  
O(0)          0.000e+00
   O2              0.000e+00   0.000e+00   -66.428   -66.378     0.050     28.29

------------------------------Saturation indices-------------------------------

	Phase               SI   log IAP   log K(278 K,   1 atm)

	H2(g)           -13.43    -16.47   -3.03  H2
	H2O(g)           -2.06     -0.01    2.06  H2O
	Halite           -2.44     -0.92    1.52  NaCl
	O2(g)           -63.66    -66.38   -2.71  O2


Reaction step 20.

Using solution 1.	
Using temperature 1.	
Using pressure 1.	
Using reaction 1.	

Reaction 1.	

	  5.079e-01 moles of the following reaction have been added:

	                 Relative
	Reactant            moles

	NaCl                 1.00000

	                 Relative
	Element             moles
	Cl                   1.00000
	Na                   1.00000

-----------------------------Solution composition------------------------------

	Elements           Molality       Moles

	Cl                5.079e-01   5.079e-01
	Na                5.079e-01   5.079e-01

----------------------------Description of solution----------------------------

                                       pH  =   7.328      Charge balance
                                       pe  =  -0.738      Adjusted to redox equilibrium
       Specific Conductance (uS/cm, 5 oC) = 28786
                          Density (g/cm3)  =   1.02158
                               Volume (L)  =   1.00793
                        Activity of water  =   0.983
                           Ionic strength  =   5.079e-01
                       Mass of water (kg)  =   1.000e+00
                 Total alkalinity (eq/kg)  =  -1.724e-16
                    Total carbon (mol/kg)  =   0.000e+00
                       Total CO2 (mol/kg)  =   0.000e+00
                      Temperature (deg C)  =   5.00
                  Electrical balance (eq)  =  -8.654e-13
 Percent error, 100*(Cat-|An|)/(Cat+|An|)  =  -0.00
                               Iterations  =  11
                                  Total H  = 1.110124e+02
                                  Total O  = 5.550622e+01

----------------------------Distribution of species----------------------------

                                               Log       Log       Log    mole V
   Species          Molality    Activity  Molality  Activity     Gamma   cm3/mol

   H+              6.105e-08   4.695e-08    -7.214    -7.328    -0.114      0.00
   OH-             6.105e-08   3.902e-08    -7.214    -7.409    -0.194     -4.43
   H2O             5.551e+01   9.827e-01     1.744    -0.008     0.000     18.02
Cl            5.079e-01
   Cl-             5.079e-01   3.335e-01    -0.294    -0.477    -0.183     17.54
H(0)          1.026e-16
   H2              5.132e-17   5.768e-17   -16.290   -16.239     0.051     28.63
Na            5.079e-01
   Na+             5.079e-01   3.685e-01    -0.294    -0.434    -0.139     -1.99
   NaOH            1.279e-18   1.438e-18   -17.893   -17.842     0.051     (0)  
O(0)          0.000e+00
   O2              0.000e+00   0.000e+00   -66.887   -66.836     0.051     28.29

------------------------------Saturation indices-------------------------------

	Phase               SI   log IAP   log K(278 K,   1 atm)

	H2(g)           -13.20    -16.24   -3.03  H2
	H2O(g)           -2.06     -0.01    2.06  H2O
	Halite           -2.43     -0.91    1.52  NaCl
	O2(g)           -64.12    -66.84   -2.71  O2


Reaction step 21.

Using solution 1.	
Using temperature 1.	
Using pressure 1.	
Using reaction 1.	

Reaction 1.	

	  6.556e-01 moles of the following reaction have been added:

	                 Relative
	Reactant            moles

	NaCl                 1.00000

	                 Relative
	Element             moles
	Cl                   1.00000
	Na                   1.00000

-----------------------------Solution composition------------------------------

	Elements           Molality       Moles

	Cl                6.556e-01   6.556e-01
	Na                6.556e-01   6.556e-01

----------------------------Description of solution----------------------------

                                       pH  =   7.325      Charge balance
                                       pe  =  -0.714      Adjusted to redox equilibrium
       Specific Conductance (uS/cm, 5 oC) = 35408
                          Density (g/cm3)  =   1.02765
                               Volume (L)  =   1.01038
                        Activity of water  =   0.978
                           Ionic strength  =   6.556e-01
                       Mass of water (kg)  =   1.000e+00
                 Total alkalinity (eq/kg)  =   6.706e-17
                    Total carbon (mol/kg)  =   0.000e+00
                       Total CO2 (mol/kg)  =   0.000e+00
                      Temperature (deg C)  =   5.00
                  Electrical balance (eq)  =  -1.139e-16
 Percent error, 100*(Cat-|An|)/(Cat+|An|)  =  -0.00
                               Iterations  =   9
                                  Total H  = 1.110124e+02
                                  Total O  = 5.550622e+01

----------------------------Distribution of species----------------------------

                                               Log       Log       Log    mole V
   Species          Molality    Activity  Molality  Activity     Gamma   cm3/mol

   OH-             6.220e-08   3.851e-08    -7.206    -7.414    -0.208     -4.19
   H+              6.220e-08   4.732e-08    -7.206    -7.325    -0.119      0.00
   H2O             5.551e+01   9.777e-01     1.744    -0.010     0.000     18.02
Cl            6.556e-01
   Cl-             6.556e-01   4.200e-01    -0.183    -0.377    -0.193     17.62
H(0)          9.032e-17
   H2              4.516e-17   5.252e-17   -16.345   -16.280     0.066     28.63
Na            6.556e-01
   Na+             6.556e-01   4.759e-01    -0.183    -0.322    -0.139     -1.85
   NaOH            1.576e-18   1.833e-18   -17.802   -17.737     0.066     (0)  
O(0)          0.000e+00
   O2              0.000e+00   0.000e+00   -66.824   -66.759     0.066     28.29

------------------------------Saturation indices-------------------------------

	Phase               SI   log IAP   log K(278 K,   1 atm)

	H2(g)           -13.25    -16.28   -3.03  H2
	H2O(g)           -2.07     -0.01    2.06  H2O
	Halite           -2.22     -0.70    1.52  NaCl
	O2(g)           -64.04    -66.76   -2.71  O2


Reaction step 22.

Using solution 1.	
Using temperature 1.	
Using pressure 1.	
Using reaction 1.	

Reaction 1.	

	  6.844e-01 moles of the following reaction have been added:

	                 Relative
	Reactant            moles

	NaCl                 1.00000

	                 Relative
	Element             moles
	Cl                   1.00000
	Na                   1.00000

-----------------------------Solution composition------------------------------

	Elements           Molality       Moles

	Cl                6.844e-01   6.844e-01
	Na                6.844e-01   6.844e-01

----------------------------Description of solution----------------------------

                                       pH  =   7.324      Charge balance
                                       pe  =  -0.406      Adjusted to redox equilibrium
       Specific Conductance (uS/cm, 5 oC) = 36649
                          Density (g/cm3)  =   1.02883
                               Volume (L)  =   1.01086
                        Activity of water  =   0.977
                           Ionic strength  =   6.844e-01
                       Mass of water (kg)  =   1.000e+00
                 Total alkalinity (eq/kg)  =  -2.077e-17
                    Total carbon (mol/kg)  =   0.000e+00
                       Total CO2 (mol/kg)  =   0.000e+00
                      Temperature (deg C)  =   5.00
                  Electrical balance (eq)  =  -2.347e-10
 Percent error, 100*(Cat-|An|)/(Cat+|An|)  =  -0.00
                               Iterations  =   9
                                  Total H  = 1.110124e+02
                                  Total O  = 5.550622e+01

----------------------------Distribution of species----------------------------

                                               Log       Log       Log    mole V
   Species          Molality    Activity  Molality  Activity     Gamma   cm3/mol

   H+              6.239e-08   4.738e-08    -7.205    -7.324    -0.119      0.00
   OH-             6.239e-08   3.842e-08    -7.205    -7.415    -0.211     -4.15
   H2O             5.551e+01   9.767e-01     1.744    -0.010     0.000     18.02
Cl            6.844e-01
   Cl-             6.844e-01   4.367e-01    -0.165    -0.360    -0.195     17.64
H(0)          2.177e-17
   H2              1.089e-17   1.274e-17   -16.963   -16.895     0.068     28.63
Na            6.844e-01
   Na+             6.844e-01   4.973e-01    -0.165    -0.303    -0.139     -1.82
   NaOH            1.632e-18   1.911e-18   -17.787   -17.719     0.068     (0)  
O(0)          0.000e+00
   O2              0.000e+00   0.000e+00   -65.598   -65.530     0.068     28.29

------------------------------Saturation indices-------------------------------

	Phase               SI   log IAP   log K(278 K,   1 atm)

	H2(g)           -13.86    -16.89   -3.03  H2
	H2O(g)           -2.07     -0.01    2.06  H2O
	Halite           -2.19     -0.66    1.52  NaCl
	O2(g)           -62.81    -65.53   -2.71  O2


Reaction step 23.

Using solution 1.	
Using temperature 1.	
Using pressure 1.	
Using reaction 1.	

Reaction 1.	

	  7.247e-01 moles of the following reaction have been added:

	                 Relative
	Reactant            moles

	NaCl                 1.00000

	                 Relative
	Element             moles
	Cl                   1.00000
	Na                   1.00000

-----------------------------Solution composition------------------------------

	Elements           Molality       Moles

	Cl                7.247e-01   7.247e-01
	Na                7.247e-01   7.247e-01

----------------------------Description of solution----------------------------

                                       pH  =   7.324      Charge balance
                                       pe  =  -0.729      Adjusted to redox equilibrium
       Specific Conductance (uS/cm, 5 oC) = 38358
                          Density (g/cm3)  =   1.03046
                               Volume (L)  =   1.01154
                        Activity of water  =   0.975
                           Ionic strength  =   7.247e-01
                       Mass of water (kg)  =   1.000e+00
                 Total alkalinity (eq/kg)  =  -2.588e-17
                    Total carbon (mol/kg)  =   0.000e+00
                       Total CO2 (mol/kg)  =   0.000e+00
                      Temperature (deg C)  =   5.00
                  Electrical balance (eq)  =  -1.116e-10
 Percent error, 100*(Cat-|An|)/(Cat+|An|)  =  -0.00
                               Iterations  =  11
                                  Total H  = 1.110124e+02
                                  Total O  = 5.550622e+01

----------------------------Distribution of species----------------------------

                                               Log       Log       Log    mole V
   Species          Molality    Activity  Molality  Activity     Gamma   cm3/mol

   H+              6.264e-08   4.747e-08    -7.203    -7.324    -0.120      0.00
   OH-             6.264e-08   3.830e-08    -7.203    -7.417    -0.214     -4.08
   H2O             5.551e+01   9.754e-01     1.744    -0.011     0.000     18.02
Cl            7.247e-01
   Cl-             7.247e-01   4.599e-01    -0.140    -0.337    -0.197     17.66
H(0)          9.592e-17
   H2              4.796e-17   5.667e-17   -16.319   -16.247     0.072     28.63
Na            7.247e-01
   Na+             7.247e-01   5.273e-01    -0.140    -0.278    -0.138     -1.79
   NaOH            1.709e-18   2.020e-18   -17.767   -17.695     0.072     (0)  
O(0)          0.000e+00
   O2              0.000e+00   0.000e+00   -66.899   -66.827     0.072     28.29

------------------------------Saturation indices-------------------------------

	Phase               SI   log IAP   log K(278 K,   1 atm)

	H2(g)           -13.21    -16.25   -3.03  H2
	H2O(g)           -2.07     -0.01    2.06  H2O
	Halite           -2.14     -0.62    1.52  NaCl
	O2(g)           -64.11    -66.83   -2.71  O2


Reaction step 24.

Using solution 1.	
Using temperature 1.	
Using pressure 1.	
Using reaction 1.	

Reaction 1.	

	  7.875e-01 moles of the following reaction have been added:

	                 Relative
	Reactant            moles

	NaCl                 1.00000

	                 Relative
	Element             moles
	Cl                   1.00000
	Na                   1.00000

-----------------------------Solution composition------------------------------

	Elements           Molality       Moles

	Cl                7.875e-01   7.875e-01
	Na                7.875e-01   7.875e-01

----------------------------Description of solution----------------------------

                                       pH  =   7.323      Charge balance
                                       pe  =  -0.532      Adjusted to redox equilibrium
       Specific Conductance (uS/cm, 5 oC) = 40980
                          Density (g/cm3)  =   1.03300
                               Volume (L)  =   1.01260
                        Activity of water  =   0.973
                           Ionic strength  =   7.875e-01
                       Mass of water (kg)  =   1.000e+00
                 Total alkalinity (eq/kg)  =  -6.994e-17
                    Total carbon (mol/kg)  =   0.000e+00
                       Total CO2 (mol/kg)  =   0.000e+00
                      Temperature (deg C)  =   5.00
                  Electrical balance (eq)  =  -1.055e-09
 Percent error, 100*(Cat-|An|)/(Cat+|An|)  =  -0.00
                               Iterations  =   9
                                  Total H  = 1.110124e+02
                                  Total O  = 5.550622e+01

----------------------------Distribution of species----------------------------

                                               Log       Log       Log    mole V
   Species          Molality    Activity  Molality  Activity     Gamma   cm3/mol

   H+              6.300e-08   4.758e-08    -7.201    -7.323    -0.122      0.00
   OH-             6.300e-08   3.812e-08    -7.201    -7.419    -0.218     -3.99
   H2O             5.551e+01   9.732e-01     1.744    -0.012     0.000     18.02
Cl            7.875e-01
   Cl-             7.875e-01   4.960e-01    -0.104    -0.305    -0.201     17.69
H(0)          3.835e-17
   H2              1.918e-17   2.299e-17   -16.717   -16.638     0.079     28.63
Na            7.875e-01
   Na+             7.875e-01   5.747e-01    -0.104    -0.241    -0.137     -1.73
   NaOH            1.828e-18   2.191e-18   -17.738   -17.659     0.079     (0)  
O(0)          0.000e+00
   O2              0.000e+00   0.000e+00   -66.124   -66.045     0.079     28.29

------------------------------Saturation indices-------------------------------

	Phase               SI   log IAP   log K(278 K,   1 atm)

	H2(g)           -13.60    -16.64   -3.03  H2
	H2O(g)           -2.07     -0.01    2.06  H2O
	Halite           -2.07     -0.55    1.52  NaCl
	O2(g)           -63.33    -66.05   -2.71  O2


Reaction step 25.

Using solution 1.	
Using temperature 1.	
Using pressure 1.	
Using reaction 1.	

Reaction 1.	

	  8.000e-01 moles of the following reaction have been added:

	                 Relative
	Reactant            moles

	NaCl                 1.00000

	                 Relative
	Element             moles
	Cl                   1.00000
	Na                   1.00000

-----------------------------Solution composition------------------------------

	Elements           Molality       Moles

	Cl                8.000e-01   8.000e-01
	Na                8.000e-01   8.000e-01

----------------------------Description of solution----------------------------

                                       pH  =   7.322      Charge balance
                                       pe  =  -0.447      Adjusted to redox equilibrium
       Specific Conductance (uS/cm, 5 oC) = 41495
                          Density (g/cm3)  =   1.03351
                               Volume (L)  =   1.01282
                        Activity of water  =   0.973
                           Ionic strength  =   8.000e-01
                       Mass of water (kg)  =   1.000e+00
                 Total alkalinity (eq/kg)  =  -1.648e-17
                    Total carbon (mol/kg)  =   0.000e+00
                       Total CO2 (mol/kg)  =   0.000e+00
                      Temperature (deg C)  =   5.00
                  Electrical balance (eq)  =  -1.136e-15
 Percent error, 100*(Cat-|An|)/(Cat+|An|)  =  -0.00
                               Iterations  =   9
                                  Total H  = 1.110124e+02
                                  Total O  = 5.550622e+01

----------------------------Distribution of species----------------------------

                                               Log       Log       Log    mole V
   Species          Molality    Activity  Molality  Activity     Gamma   cm3/mol

   H+              6.307e-08   4.760e-08    -7.200    -7.322    -0.122      0.00
   OH-             6.307e-08   3.809e-08    -7.200    -7.419    -0.219     -3.97
   H2O             5.551e+01   9.728e-01     1.744    -0.012     0.000     18.02
Cl            8.000e-01
   Cl-             8.000e-01   5.032e-01    -0.097    -0.298    -0.201     17.70
H(0)          2.593e-17
   H2              1.296e-17   1.558e-17   -16.887   -16.807     0.080     28.63
Na            8.000e-01
   Na+             8.000e-01   5.842e-01    -0.097    -0.233    -0.136     -1.72
   NaOH            1.851e-18   2.225e-18   -17.733   -17.653     0.080     (0)  
O(0)          0.000e+00
   O2              0.000e+00   0.000e+00   -65.788   -65.708     0.080     28.29

------------------------------Saturation indices-------------------------------

	Phase               SI   log IAP   log K(278 K,   1 atm)

	H2(g)           -13.77    -16.81   -3.03  H2
	H2O(g)           -2.07     -0.01    2.06  H2O
	Halite           -2.05     -0.53    1.52  NaCl
	O2(g)           -62.99    -65.71   -2.71  O2


Reaction step 26.

Using solution 1.	
Using temperature 1.	
Using pressure 1.	
Using reaction 1.	

Reaction 1.	

	  8.411e-01 moles of the following reaction have been added:

	                 Relative
	Reactant            moles

	NaCl                 1.00000

	                 Relative
	Element             moles
	Cl                   1.00000
	Na                   1.00000

-----------------------------Solution composition------------------------------

	Elements           Molality       Moles

	Cl                8.411e-01   8.412e-01
	Na                8.411e-01   8.412e-01

----------------------------Description of solution----------------------------

                                       pH  =   7.322      Charge balance
                                       pe  =  -0.525      Adjusted to redox equilibrium
       Specific Conductance (uS/cm, 5 oC) = 43176
                          Density (g/cm3)  =   1.03516
                               Volume (L)  =   1.01352
                        Activity of water  =   0.971
                           Ionic strength  =   8.412e-01
                       Mass of water (kg)  =   1.000e+00
[...]
   H2O             5.551e+01   8.585e-01     1.744    -0.066     0.000     18.73
Cl            4.161e+00
   Cl-             4.161e+00   2.224e+00     0.619     0.347    -0.272     19.56
H(0)          2.500e-31
   H2              1.250e-31   3.258e-31   -30.903   -30.487     0.416     28.57
Na            4.161e+00
   Na+             4.161e+00   4.422e+00     0.619     0.646     0.026      1.60
   NaOH            8.790e-17   2.291e-16   -16.056   -15.640     0.416     (0)  
O(0)          4.384e-14
   O2              2.192e-14   5.714e-14   -13.659   -13.243     0.416     33.72

------------------------------Saturation indices-------------------------------

	Phase               SI   log IAP   log K(368 K,   1 atm)

	H2(g)           -27.38    -30.49   -3.11  H2
	H2O(g)           -0.15     -0.07    0.08  H2O
	Halite           -0.57      0.99    1.57  NaCl
	O2(g)           -10.13    -13.24   -3.11  O2


------------------
End of simulation.
------------------

------------------------------------
Reading input data for simulation 7.
------------------------------------

	USE solution 1
	REACTION_TEMPERATURE
	 125.000000
	REACTION_PRESSURE
	 0.000000
	REACTION
	 NaCl 1
	0 0.706900 1.000000 2.000000 2.500000 3.534500
	USER_GRAPH
	-headings 125oC
	10 data 0, 16.632029, 17.160993, 18.622642, 19.141030, 19.404106,
	20 dim d(6)
	30 read d(1), d(2), d(3), d(4), d(5), d(6),
	40 if step_no = 1 then put(rho, 10)
	50 if step_no > 1 then Vmol = (1e3 + tot("Cl") * 58.4428) / (tot("Cl") * rho) - 1e3 / (tot("Cl") * get(10))
	60 if step_no = 1 then dif = 0 else dif = Vmol - d(step_no)
	62 if step_no = 1 then goto 90
	70 plot_xy tot("Na"), d(step_no), line_w = 0, color = Brown #aph_x tot("Na") # dif, str$(tc), str$(pressure), str$(step_no + get(1))
	80 plot_xy tot("Na"), Vmol, symbol = None, color = Brown #step_no = 6 then put(step_no + get(1), 1)
	90 end
	END
-----------------------------------------
Beginning of batch-reaction calculations.
-----------------------------------------

Reaction step 1.

Using solution 1.	
Using temperature 1.	
Using pressure 1.	
Using reaction 1.	

Reaction 1.	

	  0.000e+00 moles of the following reaction have been added:

	                 Relative
	Reactant            moles

	NaCl                 1.00000

	                 Relative
	Element             moles
	Cl                   1.00000
	Na                   1.00000

-----------------------------Solution composition------------------------------

	Elements           Molality       Moles

	Pure water     

----------------------------Description of solution----------------------------

                                       pH  =   5.945      Charge balance
                                       pe  =   0.727      Adjusted to redox equilibrium
       Specific Conductance (uS/cm, 125 oC) = 2
                          Density (g/cm3)  =   0.93903
                               Volume (L)  =   1.06493
                        Activity of water  =   1.000
                           Ionic strength  =   1.137e-06
                       Mass of water (kg)  =   1.000e+00
                 Total alkalinity (eq/kg)  =   3.040e-17
                    Total carbon (mol/kg)  =   0.000e+00
                       Total CO2 (mol/kg)  =   0.000e+00
                      Temperature (deg C)  = 125.00
                           Pressure (atm)  =  2.29
                  Electrical balance (eq)  =  -3.040e-17
 Percent error, 100*(Cat-|An|)/(Cat+|An|)  =  -0.00
                               Iterations  =  10
                                  Total H  = 1.110124e+02
                                  Total O  = 5.550622e+01

----------------------------Distribution of species----------------------------

                                               Log       Log       Log    mole V
   Species          Molality    Activity  Molality  Activity     Gamma   cm3/mol

   OH-             1.137e-06   1.135e-06    -5.944    -5.945    -0.001     -8.39
   H+              1.137e-06   1.135e-06    -5.944    -5.945    -0.001      0.00
   H2O             5.551e+01   1.000e+00     1.744    -0.000     0.000     19.19
H(0)          3.040e-17
   H2              1.520e-17   1.520e-17   -16.818   -16.818     0.000     28.56
O(0)          5.287e-35
   O2              2.643e-35   2.643e-35   -34.578   -34.578     0.000     34.83

------------------------------Saturation indices-------------------------------

	Phase               SI   log IAP   log K(398 K,   2 atm)

	H2(g)           -13.77    -16.82   -3.05  H2
	H2O(g)            0.35     -0.00   -0.35  H2O
	O2(g)           -31.49    -34.58   -3.09  O2


Reaction step 2.

Using solution 1.	
Using temperature 1.	
Using pressure 1.	
Using reaction 1.	

Reaction 1.	

	  7.069e-01 moles of the following reaction have been added:

	                 Relative
	Reactant            moles

	NaCl                 1.00000

	                 Relative
	Element             moles
	Cl                   1.00000
	Na                   1.00000

-----------------------------Solution composition------------------------------

	Elements           Molality       Moles

	Cl                7.069e-01   7.069e-01
	Na                7.069e-01   7.069e-01

----------------------------Description of solution----------------------------

                                       pH  =   5.891      Charge balance
                                       pe  =   4.848      Adjusted to redox equilibrium
       Specific Conductance (uS/cm, 125 oC) = 231544
                          Density (g/cm3)  =   0.96649
                               Volume (L)  =   1.07741
                        Activity of water  =   0.976
                           Ionic strength  =   7.069e-01
                       Mass of water (kg)  =   1.000e+00
                 Total alkalinity (eq/kg)  =   3.630e-11
                    Total carbon (mol/kg)  =   0.000e+00
                       Total CO2 (mol/kg)  =   0.000e+00
                      Temperature (deg C)  = 125.00
                           Pressure (atm)  =  2.29
                  Electrical balance (eq)  =  -3.778e-09
 Percent error, 100*(Cat-|An|)/(Cat+|An|)  =  -0.00
                               Iterations  =   5
                                  Total H  = 1.110124e+02
                                  Total O  = 5.550622e+01

----------------------------Distribution of species----------------------------

                                               Log       Log       Log    mole V
   Species          Molality    Activity  Molality  Activity     Gamma   cm3/mol

   OH-             1.809e-06   9.790e-07    -5.743    -6.009    -0.267     -5.34
   H+              1.809e-06   1.285e-06    -5.743    -5.891    -0.149      0.00
   H2O             5.551e+01   9.760e-01     1.744    -0.011     0.000     19.19
Cl            7.069e-01
   Cl-             7.069e-01   3.977e-01    -0.151    -0.400    -0.250     15.96
H(0)          1.896e-25
   H2              9.479e-26   1.115e-25   -25.023   -24.953     0.071     28.56
Na            7.069e-01
   Na+             7.069e-01   4.584e-01    -0.151    -0.339    -0.188      1.69
   NaOH            3.810e-17   4.484e-17   -16.419   -16.348     0.071     (0)  
O(0)          7.948e-19
   O2              3.974e-19   4.676e-19   -18.401   -18.330     0.071     34.83

------------------------------Saturation indices-------------------------------

	Phase               SI   log IAP   log K(398 K,   2 atm)

	H2(g)           -21.90    -24.95   -3.05  H2
	H2O(g)            0.34     -0.01   -0.35  H2O
	Halite           -2.25     -0.74    1.51  NaCl
	O2(g)           -15.24    -18.33   -3.09  O2


Reaction step 3.

Using solution 1.	
Using temperature 1.	
Using pressure 1.	
Using reaction 1.	

Reaction 1.	

	  1.000e+00 moles of the following reaction have been added:

	                 Relative
	Reactant            moles

	NaCl                 1.00000

	                 Relative
	Element             moles
	Cl                   1.00000
	Na                   1.00000

-----------------------------Solution composition------------------------------

	Elements           Molality       Moles

	Cl                1.000e+00   1.000e+00
	Na                1.000e+00   1.000e+00

----------------------------Description of solution----------------------------

                                       pH  =   5.885      Charge balance
                                       pe  =   5.638      Adjusted to redox equilibrium
       Specific Conductance (uS/cm, 125 oC) = 296645
                          Density (g/cm3)  =   0.97730
                               Volume (L)  =   1.08302
                        Activity of water  =   0.966
                           Ionic strength  =   1.000e+00
                       Mass of water (kg)  =   1.000e+00
                 Total alkalinity (eq/kg)  =   1.148e-13
                    Total carbon (mol/kg)  =   0.000e+00
                       Total CO2 (mol/kg)  =   0.000e+00
                      Temperature (deg C)  = 125.00
                           Pressure (atm)  =  2.29
                  Electrical balance (eq)  =  -5.218e-11
 Percent error, 100*(Cat-|An|)/(Cat+|An|)  =  -0.00
                               Iterations  =   7
                                  Total H  = 1.110124e+02
                                  Total O  = 5.550622e+01

----------------------------Distribution of species----------------------------

                                               Log       Log       Log    mole V
   Species          Molality    Activity  Molality  Activity     Gamma   cm3/mol

   OH-             1.862e-06   9.562e-07    -5.730    -6.019    -0.289     -4.59
   H+              1.862e-06   1.302e-06    -5.730    -5.885    -0.155      0.00
   H2O             5.551e+01   9.660e-01     1.744    -0.015     0.000     19.19
Cl            1.000e+00
   Cl-             1.000e+00   5.411e-01     0.000    -0.267    -0.267     16.33
H(0)          4.783e-27
   H2              2.392e-27   3.011e-27   -26.621   -26.521     0.100     28.56
Na            1.000e+00
   Na+             1.000e+00   6.556e-01     0.000    -0.183    -0.183      1.76
   NaOH            4.975e-17   6.263e-17   -16.303   -16.203     0.100     (0)  
O(0)          9.988e-16
   O2              4.994e-16   6.287e-16   -15.302   -15.202     0.100     34.83

------------------------------Saturation indices-------------------------------

	Phase               SI   log IAP   log K(398 K,   2 atm)

	H2(g)           -23.47    -26.52   -3.05  H2
	H2O(g)            0.34     -0.02   -0.35  H2O
	Halite           -1.96     -0.45    1.51  NaCl
	O2(g)           -12.11    -15.20   -3.09  O2


Reaction step 4.

Using solution 1.	
Using temperature 1.	
Using pressure 1.	
Using reaction 1.	

Reaction 1.	

	  2.000e+00 moles of the following reaction have been added:

	                 Relative
	Reactant            moles

	NaCl                 1.00000

	                 Relative
	Element             moles
	Cl                   1.00000
	Na                   1.00000

-----------------------------Solution composition------------------------------

	Elements           Molality       Moles

	Cl                2.000e+00   2.000e+00
	Na                2.000e+00   2.000e+00

----------------------------Description of solution----------------------------

                                       pH  =   5.877      Charge balance
                                       pe  =  -0.118      Adjusted to redox equilibrium
       Specific Conductance (uS/cm, 125 oC) = 491831
                          Density (g/cm3)  =   1.01246
                               Volume (L)  =   1.10314
                        Activity of water  =   0.932
                           Ionic strength  =   2.000e+00
                       Mass of water (kg)  =   1.000e+00
                 Total alkalinity (eq/kg)  =   6.950e-17
                    Total carbon (mol/kg)  =   0.000e+00
                       Total CO2 (mol/kg)  =   0.000e+00
                      Temperature (deg C)  = 125.00
                           Pressure (atm)  =  2.29
                  Electrical balance (eq)  =  -5.852e-10
 Percent error, 100*(Cat-|An|)/(Cat+|An|)  =  -0.00
                               Iterations  =  15
                                  Total H  = 1.110124e+02
                                  Total O  = 5.550622e+01

----------------------------Distribution of species----------------------------

                                               Log       Log       Log    mole V
   Species          Molality    Activity  Molality  Activity     Gamma   cm3/mol

   H+              1.951e-06   1.327e-06    -5.710    -5.877    -0.167      0.00
   OH-             1.951e-06   9.050e-07    -5.710    -6.043    -0.334     -2.38
   H2O             5.551e+01   9.320e-01     1.744    -0.031     0.000     19.19
Cl            2.000e+00
   Cl-             2.000e+00   1.021e+00     0.301     0.009    -0.292     17.24
H(0)          1.283e-15
   H2              6.414e-16   1.017e-15   -15.193   -14.993     0.200     28.56
Na            2.000e+00
   Na+             2.000e+00   1.456e+00     0.301     0.163    -0.138      1.86
   NaOH            8.306e-17   1.316e-16   -16.081   -15.881     0.200     (0)  
O(0)          6.479e-39
   O2              3.240e-39   5.134e-39   -38.490   -38.290     0.200     34.83

------------------------------Saturation indices-------------------------------

	Phase               SI   log IAP   log K(398 K,   2 atm)

	H2(g)           -11.94    -14.99   -3.05  H2
	H2O(g)            0.32     -0.03   -0.35  H2O
	Halite           -1.34      0.17    1.51  NaCl
	O2(g)           -35.20    -38.29   -3.09  O2


Reaction step 5.

Using solution 1.	
Using temperature 1.	
Using pressure 1.	
Using reaction 1.	

Reaction 1.	

	  2.500e+00 moles of the following reaction have been added:

	                 Relative
	Reactant            moles

	NaCl                 1.00000

	                 Relative
	Element             moles
	Cl                   1.00000
	Na                   1.00000

-----------------------------Solution composition------------------------------

	Elements           Molality       Moles

	Cl                2.500e+00   2.500e+00
	Na                2.500e+00   2.500e+00

----------------------------Description of solution----------------------------

                                       pH  =   5.876      Charge balance
                                       pe  =   5.729      Adjusted to redox equilibrium
       Specific Conductance (uS/cm, 125 oC) = 597792
                          Density (g/cm3)  =   1.02918
                               Volume (L)  =   1.11361
                        Activity of water  =   0.915
                           Ionic strength  =   2.500e+00
                       Mass of water (kg)  =   1.000e+00
                 Total alkalinity (eq/kg)  =   2.881e-16
                    Total carbon (mol/kg)  =   0.000e+00
                       Total CO2 (mol/kg)  =   0.000e+00
                      Temperature (deg C)  = 125.00
                           Pressure (atm)  =  2.29
                  Electrical balance (eq)  =  -3.936e-11
 Percent error, 100*(Cat-|An|)/(Cat+|An|)  =  -0.00
                               Iterations  =   6
                                  Total H  = 1.110124e+02
                                  Total O  = 5.550622e+01

----------------------------Distribution of species----------------------------

                                               Log       Log       Log    mole V
   Species          Molality    Activity  Molality  Activity     Gamma   cm3/mol

   OH-             1.971e-06   8.863e-07    -5.705    -6.052    -0.347     -1.38
   H+              1.971e-06   1.330e-06    -5.705    -5.876    -0.171      0.00
   H2O             5.551e+01   9.150e-01     1.744    -0.039     0.000     19.19
Cl            2.500e+00
   Cl-             2.500e+00   1.264e+00     0.398     0.102    -0.296     17.59
H(0)          2.331e-27
   H2              1.165e-27   2.072e-27   -26.934   -26.684     0.250     28.56
Na            2.500e+00
   Na+             2.500e+00   1.950e+00     0.398     0.290    -0.108      1.88
   NaOH            9.711e-17   1.727e-16   -16.013   -15.763     0.250     (0)  
O(0)          1.339e-15
   O2              6.697e-16   1.191e-15   -15.174   -14.924     0.250     34.83

------------------------------Saturation indices-------------------------------

	Phase               SI   log IAP   log K(398 K,   2 atm)

	H2(g)           -23.64    -26.68   -3.05  H2
	H2O(g)            0.31     -0.04   -0.35  H2O
	Halite           -1.12      0.39    1.51  NaCl
	O2(g)           -11.83    -14.92   -3.09  O2


Reaction step 6.

Using solution 1.	
Using temperature 1.	
Using pressure 1.	
Using reaction 1.	

Reaction 1.	

	  3.534e+00 moles of the following reaction have been added:

	                 Relative
	Reactant            moles

	NaCl                 1.00000

	                 Relative
	Element             moles
	Cl                   1.00000
	Na                   1.00000

-----------------------------Solution composition------------------------------

	Elements           Molality       Moles

	Cl                3.535e+00   3.535e+00
	Na                3.535e+00   3.535e+00

----------------------------Description of solution----------------------------

                                       pH  =   5.877      Charge balance
                                       pe  =   5.734      Adjusted to redox equilibrium
       Specific Conductance (uS/cm, 125 oC) = 895031
                          Density (g/cm3)  =   1.06219
                               Volume (L)  =   1.13592
                        Activity of water  =   0.880
                           Ionic strength  =   3.535e+00
                       Mass of water (kg)  =   1.000e+00
                 Total alkalinity (eq/kg)  =   1.323e-17
                    Total carbon (mol/kg)  =   0.000e+00
                       Total CO2 (mol/kg)  =   0.000e+00
                      Temperature (deg C)  = 125.00
                           Pressure (atm)  =  2.29
                  Electrical balance (eq)  =  -4.751e-14
 Percent error, 100*(Cat-|An|)/(Cat+|An|)  =  -0.00
                               Iterations  =   8
                                  Total H  = 1.110124e+02
                                  Total O  = 5.550622e+01

----------------------------Distribution of species----------------------------

                                               Log       Log       Log    mole V
   Species          Molality    Activity  Molality  Activity     Gamma   cm3/mol

   H+              1.988e-06   1.328e-06    -5.702    -5.877    -0.175      0.00
   OH-             1.988e-06   8.539e-07    -5.702    -6.069    -0.367      0.56
   H2O             5.551e+01   8.798e-01     1.744    -0.056     0.000     19.19
Cl            3.535e+00
   Cl-             3.535e+00   1.781e+00     0.548     0.251    -0.298     18.18
H(0)          1.788e-27
   H2              8.941e-28   2.018e-27   -27.049   -26.695     0.353     28.56
Na            3.535e+00
   Na+             3.535e+00   3.229e+00     0.548     0.509    -0.039      1.91
   NaOH            1.221e-16   2.756e-16   -15.913   -15.560     0.353     (0)  
O(0)          1.030e-15
   O2              5.148e-16   1.162e-15   -15.288   -14.935     0.353     34.83

------------------------------Saturation indices-------------------------------

	Phase               SI   log IAP   log K(398 K,   2 atm)

	H2(g)           -23.65    -26.70   -3.05  H2
	H2O(g)            0.30     -0.06   -0.35  H2O
	Halite           -0.75      0.76    1.51  NaCl
	O2(g)           -11.84    -14.93   -3.09  O2


------------------
End of simulation.
------------------

------------------------------------
Reading input data for simulation 8.
------------------------------------

------------------------------
End of Run after 0.29 Seconds.
------------------------------

