   Input file: Vm_NaCl_sol
  Output file: Vm_NaCl_sol.out
Database file: ../database/phreeqc.dat

------------------
Reading data base.
------------------

	SOLUTION_MASTER_SPECIES
	SOLUTION_SPECIES
	PHASES
	EXCHANGE_MASTER_SPECIES
	EXCHANGE_SPECIES
	SURFACE_MASTER_SPECIES
	SURFACE_SPECIES
	RATES
	END
------------------------------------
Reading input data for simulation 1.
------------------------------------

	DATABASE ../database/phreeqc.dat
	SOLUTION 1
	 pH 7 charge
	END
-------------------------------------------
Beginning of initial solution calculations.
-------------------------------------------

Initial solution 1.	

-----------------------------Solution composition------------------------------

	Elements           Molality       Moles

	Pure water     

----------------------------Description of solution----------------------------

                                       pH  =   7.000      Charge balance
                                       pe  =   4.000    
       Specific Conductance (uS/cm, 25 oC) = 0
                          Density (g/cm3)  =   0.99704
                        Activity of water  =   1.000
                           Ionic strength  =   1.001e-07
                       Mass of water (kg)  =   1.000e+00
                 Total alkalinity (eq/kg)  =   6.310e-18
                    Total carbon (mol/kg)  =   0.000e+00
                       Total CO2 (mol/kg)  =   0.000e+00
                      Temperature (deg C)  =  25.00
                  Electrical balance (eq)  =  -6.310e-18
 Percent error, 100*(Cat-|An|)/(Cat+|An|)  =  -0.00
                               Iterations  =   2
                                  Total H  = 1.110124e+02
                                  Total O  = 5.550622e+01

----------------------------Distribution of species----------------------------

                                               Log       Log       Log    mole V
   Species          Molality    Activity  Molality  Activity     Gamma   cm3/mol

   OH-             1.001e-07   1.001e-07    -6.999    -7.000    -0.000     -4.11
   H+              1.001e-07   1.001e-07    -6.999    -7.000    -0.000      0.00
   H2O             5.551e+01   1.000e+00     1.744    -0.000     0.000     18.07
H(0)          1.419e-25
   H2              7.095e-26   7.095e-26   -25.149   -25.149     0.000     28.61
O(0)          0.000e+00
   O2              0.000e+00   0.000e+00   -42.082   -42.082     0.000     30.40

------------------------------Saturation indices-------------------------------

	Phase               SI   log IAP   log K(298 K,   1 atm)

	H2(g)           -22.05    -25.15   -3.10  H2
	H2O(g)           -1.50     -0.00    1.50  H2O
	O2(g)           -39.19    -42.08   -2.89  O2


------------------
End of simulation.
------------------

------------------------------------
Reading input data for simulation 2.
------------------------------------

	USE solution 1
	REACTION_TEMPERATURE
	 5.000000
	REACTION_PRESSURE
	 1.000000
	REACTION
	 NaCl 1
	0 0.068450 0.093400 0.094850 0.100000 0.124260 0.161465 0.166300 0.198490 0.200000 0.257240 0.320000 0.333120 0.356409 0.475759 0.483190 0.500000 0.501200 0.501900 0.507860 0.655630 0.684443 0.724670 0.787500 0.800000 0.841150 0.947100 0.963232 0.994700 0.999200 1.001200 1.200000 1.261000 1.499860 1.501800 1.782400 1.950000 1.965000 2.003400 2.251700 2.473300 2.762500 2.951400 2.983600 3.487100 3.944700 4.447300 4.930300 5.385900 5.951800
	USER_GRAPH
	-headings 5oC
	10 data 0, 14.657906, 14.741411, 14.585688, 15.114606, 14.823821, 14.922183, 14.697092, 14.830463, 15.279405, 15.131269, 15.429920, 15.283700, 15.322325, 15.540895, 15.552742, 15.696611, 15.518762, 15.551367, 15.595391, 15.833944, 15.899870, 15.911696, 15.993571, 16.095803, 16.115112, 16.266771, 16.289291, 16.333898, 16.313042, 16.302879, 16.602808, 16.695204, 16.930814, 16.986947, 17.308670, 17.726759, 17.508545, 17.539335, 17.790072, 17.999293, 18.252674, 18.420887, 18.436035, 18.829280, 19.147293, 19.461856, 19.738854, 19.975462, 20.245315,
	20 dim d(50)
	30 read d(1), d(2), d(3), d(4), d(5), d(6), d(7), d(8), d(9), d(10), d(11), d(12), d(13), d(14), d(15), d(16), d(17), d(18), d(19), d(20), d(21), d(22), d(23), d(24), d(25), d(26), d(27), d(28), d(29), d(30), d(31), d(32), d(33), d(34), d(35), d(36), d(37), d(38), d(39), d(40), d(41), d(42), d(43), d(44), d(45), d(46), d(47), d(48), d(49), d(50),
	40 if step_no = 1 then put(rho, 10)
	50 if step_no > 1 then Vm1 = (1e3 + tot("Cl") * 58.4428) / (tot("Cl") * rho) - 1e3 / (tot("Cl") * get(10))
	60 if step_no = 1 then dif = 0 else dif = Vm1 - d(step_no)
	62 if step_no = 1 then goto 90
	70 plot_xy tot("Na"), d(step_no), line_w = 0, color = Yellow #aph_x tot("Na") # dif, str$(tc), str$(pressure), str$(step_no + get(1))
	80 plot_xy tot("Na"), Vm1, symbol = None, color = Yellow #step_no = 264 then put(step_no + get(1), 1)
	90 end
	END
-----------------------------------------
Beginning of batch-reaction calculations.
-----------------------------------------

Reaction step 1.

Using solution 1.	
Using temperature 1.	
Using pressure 1.	
Using reaction 1.	

Reaction 1.	

	  0.000e+00 moles of the following reaction have been added:

	                 Relative
	Reactant            moles

	NaCl                 1.00000

	                 Relative
	Element             moles
	Cl                   1.00000
	Na                   1.00000

-----------------------------Solution composition------------------------------

	Elements           Molality       Moles

	Pure water     

----------------------------Description of solution----------------------------

                                       pH  =   7.373      Charge balance
                                       pe  =  -0.151      Adjusted to redox equilibrium
       Specific Conductance (uS/cm, 5 oC) = 0
                          Density (g/cm3)  =   0.99996
                        Activity of water  =   1.000
                           Ionic strength  =   4.238e-08
                       Mass of water (kg)  =   1.000e+00
                 Total alkalinity (eq/kg)  =   6.310e-18
                    Total carbon (mol/kg)  =   0.000e+00
                       Total CO2 (mol/kg)  =   0.000e+00
                      Temperature (deg C)  =   5.00
                  Electrical balance (eq)  =  -6.310e-18
 Percent error, 100*(Cat-|An|)/(Cat+|An|)  =  -0.00
                               Iterations  =  31
                                  Total H  = 1.110124e+02
                                  Total O  = 5.550622e+01

----------------------------Distribution of species----------------------------

                                               Log       Log       Log    mole V
   Species          Molality    Activity  Molality  Activity     Gamma   cm3/mol

   OH-             4.238e-08   4.237e-08    -7.373    -7.373    -0.000     -5.83
   H+              4.238e-08   4.237e-08    -7.373    -7.373    -0.000      0.00
   H2O             5.551e+01   1.000e+00     1.744    -0.000     0.000     18.02
H(0)          6.310e-18
   H2              3.155e-18   3.155e-18   -17.501   -17.501     0.000     28.63
O(0)          0.000e+00
   O2              0.000e+00   0.000e+00   -64.297   -64.297     0.000     28.29

------------------------------Saturation indices-------------------------------

	Phase               SI   log IAP   log K(278 K,   1 atm)

	H2(g)           -14.47    -17.50   -3.03  H2
	H2O(g)           -2.06     -0.00    2.06  H2O
	O2(g)           -61.58    -64.30   -2.71  O2


Reaction step 2.

Using solution 1.	
Using temperature 1.	
Using pressure 1.	
Using reaction 1.	

Reaction 1.	

	  6.845e-02 moles of the following reaction have been added:

	                 Relative
	Reactant            moles

	NaCl                 1.00000

	                 Relative
	Element             moles
	Cl                   1.00000
	Na                   1.00000

-----------------------------Solution composition------------------------------

	Elements           Molality       Moles

	Cl                6.845e-02   6.845e-02
	Na                6.845e-02   6.845e-02

----------------------------Description of solution----------------------------

                                       pH  =   7.360      Charge balance
                                       pe  =  -0.218      Adjusted to redox equilibrium
       Specific Conductance (uS/cm, 5 oC) = 4457
                          Density (g/cm3)  =   1.00295
                        Activity of water  =   0.998
                           Ionic strength  =   6.845e-02
                       Mass of water (kg)  =   1.000e+00
                 Total alkalinity (eq/kg)  =  -3.858e-16
                    Total carbon (mol/kg)  =   0.000e+00
                       Total CO2 (mol/kg)  =   0.000e+00
                      Temperature (deg C)  =   5.00
                  Electrical balance (eq)  =   3.876e-16
 Percent error, 100*(Cat-|An|)/(Cat+|An|)  =   0.00
                               Iterations  =   8
                                  Total H  = 1.110124e+02
                                  Total O  = 5.550622e+01

----------------------------Distribution of species----------------------------

                                               Log       Log       Log    mole V
   Species          Molality    Activity  Molality  Activity     Gamma   cm3/mol

   H+              5.163e-08   4.362e-08    -7.287    -7.360    -0.073      0.00
   OH-             5.163e-08   4.105e-08    -7.287    -7.387    -0.100     -5.51
   H2O             5.551e+01   9.977e-01     1.744    -0.001     0.000     18.02
Cl            6.845e-02
   Cl-             6.845e-02   5.455e-02    -1.165    -1.263    -0.099     17.13
H(0)          8.958e-18
   H2              4.479e-18   4.550e-18   -17.349   -17.342     0.007     28.63
Na            6.845e-02
   Na+             6.845e-02   5.547e-02    -1.165    -1.256    -0.091     -2.39
   NaOH            2.241e-19   2.277e-19   -18.649   -18.643     0.007     (0)  
O(0)          0.000e+00
   O2              0.000e+00   0.000e+00   -64.624   -64.617     0.007     28.29

------------------------------Saturation indices-------------------------------

	Phase               SI   log IAP   log K(278 K,   1 atm)

	H2(g)           -14.31    -17.34   -3.03  H2
	H2O(g)           -2.06     -0.00    2.06  H2O
	Halite           -4.05     -2.52    1.53  NaCl
	O2(g)           -61.90    -64.62   -2.71  O2


Reaction step 3.

Using solution 1.	
Using temperature 1.	
Using pressure 1.	
Using reaction 1.	

Reaction 1.	

	  9.340e-02 moles of the following reaction have been added:

	                 Relative
	Reactant            moles

	NaCl                 1.00000

	                 Relative
	Element             moles
	Cl                   1.00000
	Na                   1.00000

-----------------------------Solution composition------------------------------

	Elements           Molality       Moles

	Cl                9.340e-02   9.340e-02
	Na                9.340e-02   9.340e-02

----------------------------Description of solution----------------------------

                                       pH  =   7.358      Charge balance
                                       pe  =  -0.095      Adjusted to redox equilibrium
       Specific Conductance (uS/cm, 5 oC) = 5989
                          Density (g/cm3)  =   1.00403
                        Activity of water  =   0.997
                           Ionic strength  =   9.340e-02
                       Mass of water (kg)  =   1.000e+00
                 Total alkalinity (eq/kg)  =  -4.025e-16
                    Total carbon (mol/kg)  =   0.000e+00
                       Total CO2 (mol/kg)  =   0.000e+00
                      Temperature (deg C)  =   5.00
                  Electrical balance (eq)  =   3.525e-16
 Percent error, 100*(Cat-|An|)/(Cat+|An|)  =   0.00
                               Iterations  =   8
                                  Total H  = 1.110124e+02
                                  Total O  = 5.550622e+01

----------------------------Distribution of species----------------------------

                                               Log       Log       Log    mole V
   Species          Molality    Activity  Molality  Activity     Gamma   cm3/mol

   H+              5.275e-08   4.390e-08    -7.278    -7.358    -0.080      0.00
   OH-             5.275e-08   4.075e-08    -7.278    -7.390    -0.112     -5.44
   H2O             5.551e+01   9.968e-01     1.744    -0.001     0.000     18.02
Cl            9.340e-02
   Cl-             9.340e-02   7.239e-02    -1.030    -1.140    -0.111     17.17
H(0)          5.120e-18
   H2              2.560e-18   2.616e-18   -17.592   -17.582     0.009     28.63
Na            9.340e-02
   Na+             9.340e-02   7.401e-02    -1.030    -1.131    -0.101     -2.36
   NaOH            2.952e-19   3.016e-19   -18.530   -18.521     0.009     (0)  
O(0)          0.000e+00
   O2              0.000e+00   0.000e+00   -64.146   -64.136     0.009     28.29

------------------------------Saturation indices-------------------------------

	Phase               SI   log IAP   log K(278 K,   1 atm)

	H2(g)           -14.55    -17.58   -3.03  H2
	H2O(g)           -2.06     -0.00    2.06  H2O
	Halite           -3.80     -2.27    1.53  NaCl
	O2(g)           -61.42    -64.14   -2.71  O2


Reaction step 4.

Using solution 1.	
Using temperature 1.	
Using pressure 1.	
Using reaction 1.	

Reaction 1.	

	  9.485e-02 moles of the following reaction have been added:

	                 Relative
	Reactant            moles

	NaCl                 1.00000

	                 Relative
	Element             moles
	Cl                   1.00000
	Na                   1.00000

-----------------------------Solution composition------------------------------

	Elements           Molality       Moles

	Cl                9.485e-02   9.485e-02
	Na                9.485e-02   9.485e-02

----------------------------Description of solution----------------------------

                                       pH  =   7.357      Charge balance
                                       pe  =  -0.264      Adjusted to redox equilibrium
       Specific Conductance (uS/cm, 5 oC) = 6077
                          Density (g/cm3)  =   1.00410
                        Activity of water  =   0.997
                           Ionic strength  =   9.485e-02
                       Mass of water (kg)  =   1.000e+00
                 Total alkalinity (eq/kg)  =   1.100e-17
                    Total carbon (mol/kg)  =   0.000e+00
                       Total CO2 (mol/kg)  =   0.000e+00
                      Temperature (deg C)  =   5.00
                  Electrical balance (eq)  =  -6.827e-18
 Percent error, 100*(Cat-|An|)/(Cat+|An|)  =  -0.00
                               Iterations  =  13
                                  Total H  = 1.110124e+02
                                  Total O  = 5.550622e+01

----------------------------Distribution of species----------------------------

                                               Log       Log       Log    mole V
   Species          Molality    Activity  Molality  Activity     Gamma   cm3/mol

   OH-             5.280e-08   4.074e-08    -7.277    -7.390    -0.113     -5.43
   H+              5.280e-08   4.392e-08    -7.277    -7.357    -0.080      0.00
   H2O             5.551e+01   9.968e-01     1.744    -0.001     0.000     18.02
Cl            9.485e-02
   Cl-             9.485e-02   7.341e-02    -1.023    -1.134    -0.111     17.17
H(0)          1.116e-17
   H2              5.579e-18   5.702e-18   -17.253   -17.244     0.009     28.63
Na            9.485e-02
   Na+             9.485e-02   7.507e-02    -1.023    -1.125    -0.102     -2.36
   NaOH            2.992e-19   3.058e-19   -18.524   -18.515     0.009     (0)  
O(0)          0.000e+00
   O2              0.000e+00   0.000e+00   -64.823   -64.813     0.009     28.29

------------------------------Saturation indices-------------------------------

	Phase               SI   log IAP   log K(278 K,   1 atm)

	H2(g)           -14.21    -17.24   -3.03  H2
	H2O(g)           -2.06     -0.00    2.06  H2O
	Halite           -3.79     -2.26    1.53  NaCl
	O2(g)           -62.10    -64.81   -2.71  O2


Reaction step 5.

Using solution 1.	
Using temperature 1.	
Using pressure 1.	
Using reaction 1.	

Reaction 1.	

	  1.000e-01 moles of the following reaction have been added:

	                 Relative
	Reactant            moles

	NaCl                 1.00000

	                 Relative
	Element             moles
	Cl                   1.00000
	Na                   1.00000

-----------------------------Solution composition------------------------------

	Elements           Molality       Moles

	Cl                1.000e-01   1.000e-01
	Na                1.000e-01   1.000e-01

----------------------------Description of solution----------------------------

                                       pH  =   7.357      Charge balance
                                       pe  =  -0.251      Adjusted to redox equilibrium
       Specific Conductance (uS/cm, 5 oC) = 6389
                          Density (g/cm3)  =   1.00432
                        Activity of water  =   0.997
                           Ionic strength  =   1.000e-01
                       Mass of water (kg)  =   1.000e+00
                 Total alkalinity (eq/kg)  =  -8.294e-17
                    Total carbon (mol/kg)  =   0.000e+00
                       Total CO2 (mol/kg)  =   0.000e+00
                      Temperature (deg C)  =   5.00
                  Electrical balance (eq)  =   8.436e-17
 Percent error, 100*(Cat-|An|)/(Cat+|An|)  =   0.00
                               Iterations  =  11
                                  Total H  = 1.110124e+02
                                  Total O  = 5.550622e+01

----------------------------Distribution of species----------------------------

                                               Log       Log       Log    mole V
   Species          Molality    Activity  Molality  Activity     Gamma   cm3/mol

   H+              5.300e-08   4.397e-08    -7.276    -7.357    -0.081      0.00
   OH-             5.300e-08   4.068e-08    -7.276    -7.391    -0.115     -5.42
   H2O             5.551e+01   9.966e-01     1.744    -0.001     0.000     18.02
Cl            1.000e-01
   Cl-             1.000e-01   7.702e-02    -1.000    -1.113    -0.113     17.18
H(0)          1.050e-17
   H2              5.252e-18   5.374e-18   -17.280   -17.270     0.010     28.63
Na            1.000e-01
   Na+             1.000e-01   7.885e-02    -1.000    -1.103    -0.103     -2.35
   NaOH            3.135e-19   3.208e-19   -18.504   -18.494     0.010     (0)  
O(0)          0.000e+00
   O2              0.000e+00   0.000e+00   -64.772   -64.762     0.010     28.29

------------------------------Saturation indices-------------------------------

	Phase               SI   log IAP   log K(278 K,   1 atm)

	H2(g)           -14.24    -17.27   -3.03  H2
	H2O(g)           -2.06     -0.00    2.06  H2O
	Halite           -3.75     -2.22    1.53  NaCl
	O2(g)           -62.05    -64.76   -2.71  O2


Reaction step 6.

Using solution 1.	
Using temperature 1.	
Using pressure 1.	
Using reaction 1.	

Reaction 1.	

	  1.243e-01 moles of the following reaction have been added:

	                 Relative
	Reactant            moles

	NaCl                 1.00000

	                 Relative
	Element             moles
	Cl                   1.00000
	Na                   1.00000

-----------------------------Solution composition------------------------------

	Elements           Molality       Moles

	Cl                1.243e-01   1.243e-01
	Na                1.243e-01   1.243e-01

----------------------------Description of solution----------------------------

                                       pH  =   7.355      Charge balance
                                       pe  =  -0.271      Adjusted to redox equilibrium
       Specific Conductance (uS/cm, 5 oC) = 7850
                          Density (g/cm3)  =   1.00537
                        Activity of water  =   0.996
                           Ionic strength  =   1.243e-01
                       Mass of water (kg)  =   1.000e+00
                 Total alkalinity (eq/kg)  =   1.095e-17
                    Total carbon (mol/kg)  =   0.000e+00
                       Total CO2 (mol/kg)  =   0.000e+00
                      Temperature (deg C)  =   5.00
                  Electrical balance (eq)  =   3.750e-17
 Percent error, 100*(Cat-|An|)/(Cat+|An|)  =   0.00
                               Iterations  =  31
                                  Total H  = 1.110124e+02
                                  Total O  = 5.550622e+01

----------------------------Distribution of species----------------------------

                                               Log       Log       Log    mole V
   Species          Molality    Activity  Molality  Activity     Gamma   cm3/mol

   OH-             5.384e-08   4.044e-08    -7.269    -7.393    -0.124     -5.35
   H+              5.384e-08   4.420e-08    -7.269    -7.355    -0.086      0.00
   H2O             5.551e+01   9.958e-01     1.744    -0.002     0.000     18.02
Cl            1.243e-01
   Cl-             1.243e-01   9.373e-02    -0.906    -1.028    -0.122     17.21
H(0)          1.157e-17
   H2              5.784e-18   5.952e-18   -17.238   -17.225     0.012     28.63
Na            1.243e-01
   Na+             1.243e-01   9.643e-02    -0.906    -1.016    -0.110     -2.32
   NaOH            3.790e-19   3.900e-19   -18.421   -18.409     0.012     (0)  
O(0)          0.000e+00
   O2              0.000e+00   0.000e+00   -64.864   -64.852     0.012     28.29

------------------------------Saturation indices-------------------------------

	Phase               SI   log IAP   log K(278 K,   1 atm)

	H2(g)           -14.19    -17.23   -3.03  H2
	H2O(g)           -2.06     -0.00    2.06  H2O
	Halite           -3.58     -2.04    1.53  NaCl
	O2(g)           -62.14    -64.85   -2.71  O2


Reaction step 7.

Using solution 1.	
Using temperature 1.	
Using pressure 1.	
Using reaction 1.	

Reaction 1.	

	  1.615e-01 moles of the following reaction have been added:

	                 Relative
	Reactant            moles

	NaCl                 1.00000

	                 Relative
	Element             moles
	Cl                   1.00000
	Na                   1.00000

-----------------------------Solution composition------------------------------

	Elements           Molality       Moles

	Cl                1.615e-01   1.615e-01
	Na                1.615e-01   1.615e-01

----------------------------Description of solution----------------------------

                                       pH  =   7.352      Charge balance
                                       pe  =  -0.505      Adjusted to redox equilibrium
       Specific Conductance (uS/cm, 5 oC) = 10060
                          Density (g/cm3)  =   1.00697
                        Activity of water  =   0.995
                           Ionic strength  =   1.615e-01
                       Mass of water (kg)  =   1.000e+00
                 Total alkalinity (eq/kg)  =  -7.682e-16
                    Total carbon (mol/kg)  =   0.000e+00
                       Total CO2 (mol/kg)  =   0.000e+00
                      Temperature (deg C)  =   5.00
                  Electrical balance (eq)  =  -7.215e-15
 Percent error, 100*(Cat-|An|)/(Cat+|An|)  =  -0.00
                               Iterations  =  11
                                  Total H  = 1.110124e+02
                                  Total O  = 5.550622e+01

----------------------------Distribution of species----------------------------

                                               Log       Log       Log    mole V
   Species          Molality    Activity  Molality  Activity     Gamma   cm3/mol

   H+              5.490e-08   4.450e-08    -7.260    -7.352    -0.091      0.00
   OH-             5.490e-08   4.012e-08    -7.260    -7.397    -0.136     -5.25
   H2O             5.551e+01   9.945e-01     1.744    -0.002     0.000     18.02
Cl            1.615e-01
   Cl-             1.615e-01   1.186e-01    -0.792    -0.926    -0.134     17.25
H(0)          3.417e-17
   H2              1.709e-17   1.773e-17   -16.767   -16.751     0.016     28.63
Na            1.615e-01
   Na+             1.615e-01   1.230e-01    -0.792    -0.910    -0.118     -2.28
   NaOH            4.753e-19   4.933e-19   -18.323   -18.307     0.016     (0)  
O(0)          0.000e+00
   O2              0.000e+00   0.000e+00   -65.817   -65.801     0.016     28.29

------------------------------Saturation indices-------------------------------

	Phase               SI   log IAP   log K(278 K,   1 atm)

	H2(g)           -13.72    -16.75   -3.03  H2
	H2O(g)           -2.06     -0.00    2.06  H2O
	Halite           -3.37     -1.84    1.53  NaCl
	O2(g)           -63.09    -65.80   -2.71  O2


Reaction step 8.

Using solution 1.	
Using temperature 1.	
Using pressure 1.	
Using reaction 1.	

Reaction 1.	

	  1.663e-01 moles of the following reaction have been added:

	                 Relative
	Reactant            moles

	NaCl                 1.00000

	                 Relative
	Element             moles
	Cl                   1.00000
	Na                   1.00000

-----------------------------Solution composition------------------------------

	Elements           Molality       Moles

	Cl                1.663e-01   1.663e-01
	Na                1.663e-01   1.663e-01

----------------------------Description of solution----------------------------

                                       pH  =   7.351      Charge balance
                                       pe  =   0.072      Adjusted to redox equilibrium
       Specific Conductance (uS/cm, 5 oC) = 10345
                          Density (g/cm3)  =   1.00717
                        Activity of water  =   0.994
                           Ionic strength  =   1.663e-01
                       Mass of water (kg)  =   1.000e+00
                 Total alkalinity (eq/kg)  =  -5.803e-16
                    Total carbon (mol/kg)  =   0.000e+00
                       Total CO2 (mol/kg)  =   0.000e+00
                      Temperature (deg C)  =   5.00
                  Electrical balance (eq)  =  -5.828e-15
 Percent error, 100*(Cat-|An|)/(Cat+|An|)  =  -0.00
                               Iterations  =   8
                                  Total H  = 1.110124e+02
                                  Total O  = 5.550622e+01

----------------------------Distribution of species----------------------------

                                               Log       Log       Log    mole V
   Species          Molality    Activity  Molality  Activity     Gamma   cm3/mol

   H+              5.502e-08   4.453e-08    -7.259    -7.351    -0.092      0.00
   OH-             5.502e-08   4.008e-08    -7.259    -7.397    -0.138     -5.23
   H2O             5.551e+01   9.943e-01     1.744    -0.002     0.000     18.02
Cl            1.663e-01
   Cl-             1.663e-01   1.218e-01    -0.779    -0.914    -0.135     17.25
H(0)          2.400e-18
   H2              1.200e-18   1.247e-18   -17.921   -17.904     0.017     28.63
Na            1.663e-01
   Na+             1.663e-01   1.264e-01    -0.779    -0.898    -0.119     -2.27
   NaOH            4.875e-19   5.065e-19   -18.312   -18.295     0.017     (0)  
O(0)          0.000e+00
   O2              0.000e+00   0.000e+00   -63.512   -63.495     0.017     28.29

------------------------------Saturation indices-------------------------------

	Phase               SI   log IAP   log K(278 K,   1 atm)

	H2(g)           -14.87    -17.90   -3.03  H2
	H2O(g)           -2.06     -0.00    2.06  H2O
	Halite           -3.35     -1.81    1.53  NaCl
	O2(g)           -60.78    -63.50   -2.71  O2


Reaction step 9.

Using solution 1.	
Using temperature 1.	
Using pressure 1.	
Using reaction 1.	

Reaction 1.	

	  1.985e-01 moles of the following reaction have been added:

	                 Relative
	Reactant            moles

	NaCl                 1.00000

	                 Relative
	Element             moles
	Cl                   1.00000
	Na                   1.00000

-----------------------------Solution composition------------------------------

	Elements           Molality       Moles

	Cl                1.985e-01   1.985e-01
	Na                1.985e-01   1.985e-01

----------------------------Description of solution----------------------------

                                       pH  =   7.349      Charge balance
                                       pe  =  -0.083      Adjusted to redox equilibrium
       Specific Conductance (uS/cm, 5 oC) = 12230
                          Density (g/cm3)  =   1.00855
                        Activity of water  =   0.993
                           Ionic strength  =   1.985e-01
                       Mass of water (kg)  =   1.000e+00
                 Total alkalinity (eq/kg)  =  -6.467e-18
                    Total carbon (mol/kg)  =   0.000e+00
                       Total CO2 (mol/kg)  =   0.000e+00
                      Temperature (deg C)  =   5.00
                  Electrical balance (eq)  =  -2.726e-18
 Percent error, 100*(Cat-|An|)/(Cat+|An|)  =  -0.00
                               Iterations  =  18
                                  Total H  = 1.110124e+02
                                  Total O  = 5.550622e+01

----------------------------Distribution of species----------------------------

                                               Log       Log       Log    mole V
   Species          Molality    Activity  Molality  Activity     Gamma   cm3/mol

   H+              5.576e-08   4.475e-08    -7.254    -7.349    -0.096      0.00
   OH-             5.576e-08   3.984e-08    -7.254    -7.400    -0.146     -5.15
   H2O             5.551e+01   9.933e-01     1.744    -0.003     0.000     18.02
Cl            1.985e-01
   Cl-             1.985e-01   1.428e-01    -0.702    -0.845    -0.143     17.28
H(0)          4.908e-18
   H2              2.454e-18   2.569e-18   -17.610   -17.590     0.020     28.63
Na            1.985e-01
   Na+             1.985e-01   1.490e-01    -0.702    -0.827    -0.124     -2.24
   NaOH            5.671e-19   5.936e-19   -18.246   -18.226     0.020     (0)  
O(0)          0.000e+00
   O2              0.000e+00   0.000e+00   -64.144   -64.124     0.020     28.29

------------------------------Saturation indices-------------------------------

	Phase               SI   log IAP   log K(278 K,   1 atm)

	H2(g)           -14.56    -17.59   -3.03  H2
	H2O(g)           -2.06     -0.00    2.06  H2O
	Halite           -3.21     -1.67    1.53  NaCl
	O2(g)           -61.41    -64.12   -2.71  O2


Reaction step 10.

Using solution 1.	
Using temperature 1.	
Using pressure 1.	
Using reaction 1.	

Reaction 1.	

	  2.000e-01 moles of the following reaction have been added:

	                 Relative
	Reactant            moles

	NaCl                 1.00000

	                 Relative
	Element             moles
	Cl                   1.00000
	Na                   1.00000

-----------------------------Solution composition------------------------------

	Elements           Molality       Moles

	Cl                2.000e-01   2.000e-01
	Na                2.000e-01   2.000e-01

----------------------------Description of solution----------------------------

                                       pH  =   7.349      Charge balance
                                       pe  =  -0.230      Adjusted to redox equilibrium
       Specific Conductance (uS/cm, 5 oC) = 12318
                          Density (g/cm3)  =   1.00862
                        Activity of water  =   0.993
                           Ionic strength  =   2.000e-01
                       Mass of water (kg)  =   1.000e+00
                 Total alkalinity (eq/kg)  =  -2.427e-16
                    Total carbon (mol/kg)  =   0.000e+00
                       Total CO2 (mol/kg)  =   0.000e+00
                      Temperature (deg C)  =   5.00
                  Electrical balance (eq)  =  -9.130e-15
 Percent error, 100*(Cat-|An|)/(Cat+|An|)  =  -0.00
                               Iterations  =   9
                                  Total H  = 1.110124e+02
                                  Total O  = 5.550622e+01

----------------------------Distribution of species----------------------------

                                               Log       Log       Log    mole V
   Species          Molality    Activity  Molality  Activity     Gamma   cm3/mol

   H+              5.580e-08   4.476e-08    -7.253    -7.349    -0.096      0.00
   OH-             5.580e-08   3.983e-08    -7.253    -7.400    -0.146     -5.15
   H2O             5.551e+01   9.932e-01     1.744    -0.003     0.000     18.02
Cl            2.000e-01
   Cl-             2.000e-01   1.437e-01    -0.699    -0.842    -0.143     17.28
H(0)          9.691e-18
   H2              4.846e-18   5.074e-18   -17.315   -17.295     0.020     28.63
Na            2.000e-01
   Na+             2.000e-01   1.501e-01    -0.699    -0.824    -0.125     -2.24
   NaOH            5.708e-19   5.977e-19   -18.244   -18.224     0.020     (0)  
O(0)          0.000e+00
   O2              0.000e+00   0.000e+00   -64.735   -64.715     0.020     28.29

------------------------------Saturation indices-------------------------------

	Phase               SI   log IAP   log K(278 K,   1 atm)

	H2(g)           -14.26    -17.29   -3.03  H2
	H2O(g)           -2.06     -0.00    2.06  H2O
	Halite           -3.20     -1.67    1.53  NaCl
	O2(g)           -62.00    -64.72   -2.71  O2


Reaction step 11.

Using solution 1.	
Using temperature 1.	
Using pressure 1.	
Using reaction 1.	

Reaction 1.	

	  2.572e-01 moles of the following reaction have been added:

	                 Relative
	Reactant            moles

	NaCl                 1.00000

	                 Relative
	Element             moles
	Cl                   1.00000
	Na                   1.00000

-----------------------------Solution composition------------------------------

	Elements           Molality       Moles

	Cl                2.572e-01   2.572e-01
	Na                2.572e-01   2.572e-01

----------------------------Description of solution----------------------------

                                       pH  =   7.346      Charge balance
                                       pe  =  -0.675      Adjusted to redox equilibrium
       Specific Conductance (uS/cm, 5 oC) = 15632
                          Density (g/cm3)  =   1.01106
                        Activity of water  =   0.991
                           Ionic strength  =   2.572e-01
                       Mass of water (kg)  =   1.000e+00
                 Total alkalinity (eq/kg)  =  -1.091e-17
                    Total carbon (mol/kg)  =   0.000e+00
                       Total CO2 (mol/kg)  =   0.000e+00
                      Temperature (deg C)  =   5.00
                  Electrical balance (eq)  =  -2.567e-15
 Percent error, 100*(Cat-|An|)/(Cat+|An|)  =  -0.00
                               Iterations  =  44
                                  Total H  = 1.110124e+02
                                  Total O  = 5.550622e+01

----------------------------Distribution of species----------------------------

                                               Log       Log       Log    mole V
   Species          Molality    Activity  Molality  Activity     Gamma   cm3/mol

   H+              5.688e-08   4.509e-08    -7.245    -7.346    -0.101      0.00
   OH-             5.688e-08   3.945e-08    -7.245    -7.404    -0.159     -5.00
   H2O             5.551e+01   9.913e-01     1.744    -0.004     0.000     18.02
Cl            2.572e-01
   Cl-             2.572e-01   1.800e-01    -0.590    -0.745    -0.155     17.33
H(0)          7.507e-17
   H2              3.753e-17   3.982e-17   -16.426   -16.400     0.026     28.63
Na            2.572e-01
   Na+             2.572e-01   1.899e-01    -0.590    -0.721    -0.132     -2.18
   NaOH            7.063e-19   7.494e-19   -18.151   -18.125     0.026     (0)  
O(0)          0.000e+00
   O2              0.000e+00   0.000e+00   -66.532   -66.506     0.026     28.29

------------------------------Saturation indices-------------------------------

	Phase               SI   log IAP   log K(278 K,   1 atm)

	H2(g)           -13.37    -16.40   -3.03  H2
	H2O(g)           -2.06     -0.00    2.06  H2O
	Halite           -3.00     -1.47    1.53  NaCl
	O2(g)           -63.79    -66.51   -2.71  O2


Reaction step 12.

Using solution 1.	
Using temperature 1.	
Using pressure 1.	
Using reaction 1.	

Reaction 1.	

	  3.200e-01 moles of the following reaction have been added:

	                 Relative
	Reactant            moles

	NaCl                 1.00000

	                 Relative
	Element             moles
	Cl                   1.00000
	Na                   1.00000

-----------------------------Solution composition------------------------------

	Elements           Molality       Moles

	Cl                3.200e-01   3.200e-01
	Na                3.200e-01   3.200e-01

----------------------------Description of solution----------------------------

                                       pH  =   7.343      Charge balance
                                       pe  =  -0.087      Adjusted to redox equilibrium
       Specific Conductance (uS/cm, 5 oC) = 19226
                          Density (g/cm3)  =   1.01372
                        Activity of water  =   0.989
                           Ionic strength  =   3.200e-01
                       Mass of water (kg)  =   1.000e+00
                 Total alkalinity (eq/kg)  =  -4.385e-16
                    Total carbon (mol/kg)  =   0.000e+00
                       Total CO2 (mol/kg)  =   0.000e+00
                      Temperature (deg C)  =   5.00
                  Electrical balance (eq)  =  -1.843e-13
 Percent error, 100*(Cat-|An|)/(Cat+|An|)  =  -0.00
                               Iterations  =  15
                                  Total H  = 1.110124e+02
                                  Total O  = 5.550622e+01

----------------------------Distribution of species----------------------------

                                               Log       Log       Log    mole V
   Species          Molality    Activity  Molality  Activity     Gamma   cm3/mol

   H+              5.785e-08   4.540e-08    -7.238    -7.343    -0.105      0.00
   OH-             5.785e-08   3.911e-08    -7.238    -7.408    -0.170     -4.85
   H2O             5.551e+01   9.891e-01     1.744    -0.005     0.000     18.02
Cl            3.200e-01
   Cl-             3.200e-01   2.187e-01    -0.495    -0.660    -0.165     17.38
H(0)          5.019e-18
   H2              2.509e-18   2.701e-18   -17.600   -17.568     0.032     28.63
Na            3.200e-01
   Na+             3.200e-01   2.334e-01    -0.495    -0.632    -0.137     -2.13
   NaOH            8.479e-19   9.128e-19   -18.072   -18.040     0.032     (0)  
O(0)          0.000e+00
   O2              0.000e+00   0.000e+00   -64.203   -64.171     0.032     28.29

------------------------------Saturation indices-------------------------------

	Phase               SI   log IAP   log K(278 K,   1 atm)

	H2(g)           -14.53    -17.57   -3.03  H2
	H2O(g)           -2.06     -0.00    2.06  H2O
	Halite           -2.83     -1.29    1.53  NaCl
	O2(g)           -61.46    -64.17   -2.71  O2


Reaction step 13.

Using solution 1.	
Using temperature 1.	
Using pressure 1.	
Using reaction 1.	

Reaction 1.	

	  3.331e-01 moles of the following reaction have been added:

	                 Relative
	Reactant            moles

	NaCl                 1.00000

	                 Relative
	Element             moles
	Cl                   1.00000
	Na                   1.00000

-----------------------------Solution composition------------------------------

	Elements           Molality       Moles

	Cl                3.331e-01   3.331e-01
	Na                3.331e-01   3.331e-01

----------------------------Description of solution----------------------------

                                       pH  =   7.342      Charge balance
                                       pe  =  -0.450      Adjusted to redox equilibrium
       Specific Conductance (uS/cm, 5 oC) = 19973
                          Density (g/cm3)  =   1.01427
                        Activity of water  =   0.989
                           Ionic strength  =   3.331e-01
                       Mass of water (kg)  =   1.000e+00
                 Total alkalinity (eq/kg)  =   1.066e-17
                    Total carbon (mol/kg)  =   0.000e+00
                       Total CO2 (mol/kg)  =   0.000e+00
                      Temperature (deg C)  =   5.00
                  Electrical balance (eq)  =  -9.379e-16
 Percent error, 100*(Cat-|An|)/(Cat+|An|)  =  -0.00
                               Iterations  =   9
                                  Total H  = 1.110124e+02
                                  Total O  = 5.550622e+01

----------------------------Distribution of species----------------------------

                                               Log       Log       Log    mole V
   Species          Molality    Activity  Molality  Activity     Gamma   cm3/mol

   OH-             5.803e-08   3.904e-08    -7.236    -7.409    -0.172     -4.82
   H+              5.803e-08   4.546e-08    -7.236    -7.342    -0.106      0.00
   H2O             5.551e+01   9.887e-01     1.744    -0.005     0.000     18.02
Cl            3.331e-01
   Cl-             3.331e-01   2.267e-01    -0.477    -0.645    -0.167     17.39
H(0)          2.661e-17
   H2              1.331e-17   1.437e-17   -16.876   -16.843     0.033     28.63
Na            3.331e-01
   Na+             3.331e-01   2.425e-01    -0.477    -0.615    -0.138     -2.12
   NaOH            8.768e-19   9.466e-19   -18.057   -18.024     0.033     (0)  
O(0)          0.000e+00
   O2              0.000e+00   0.000e+00   -65.657   -65.623     0.033     28.29

------------------------------Saturation indices-------------------------------

	Phase               SI   log IAP   log K(278 K,   1 atm)

	H2(g)           -13.81    -16.84   -3.03  H2
	H2O(g)           -2.06     -0.00    2.06  H2O
	Halite           -2.79     -1.26    1.53  NaCl
	O2(g)           -62.91    -65.62   -2.71  O2


Reaction step 14.

Using solution 1.	
Using temperature 1.	
Using pressure 1.	
Using reaction 1.	

Reaction 1.	

	  3.564e-01 moles of the following reaction have been added:

	                 Relative
	Reactant            moles

	NaCl                 1.00000

	                 Relative
	Element             moles
	Cl                   1.00000
	Na                   1.00000

-----------------------------Solution composition------------------------------

	Elements           Molality       Moles

	Cl                3.564e-01   3.564e-01
	Na                3.564e-01   3.564e-01

----------------------------Description of solution----------------------------

                                       pH  =   7.341      Charge balance
                                       pe  =  12.378      Adjusted to redox equilibrium
       Specific Conductance (uS/cm, 5 oC) = 21297
                          Density (g/cm3)  =   1.01525
                        Activity of water  =   0.988
                           Ionic strength  =   3.564e-01
                       Mass of water (kg)  =   1.000e+00
                 Total alkalinity (eq/kg)  =   6.211e-18
                    Total carbon (mol/kg)  =   0.000e+00
                       Total CO2 (mol/kg)  =   0.000e+00
                      Temperature (deg C)  =   5.00
                  Electrical balance (eq)  =  -1.468e-15
 Percent error, 100*(Cat-|An|)/(Cat+|An|)  =  -0.00
                               Iterations  =  27
                                  Total H  = 1.110124e+02
                                  Total O  = 5.550622e+01

----------------------------Distribution of species----------------------------

                                               Log       Log       Log    mole V
   Species          Molality    Activity  Molality  Activity     Gamma   cm3/mol

   OH-             5.833e-08   3.892e-08    -7.234    -7.410    -0.176     -4.77
   H+              5.833e-08   4.555e-08    -7.234    -7.341    -0.107      0.00
   H2O             5.551e+01   9.879e-01     1.744    -0.005     0.000     18.02
Cl            3.564e-01
   Cl-             3.564e-01   2.408e-01    -0.448    -0.618    -0.170     17.41
H(0)          0.000e+00
   H2              0.000e+00   0.000e+00   -42.532   -42.496     0.036     28.63
Na            3.564e-01
   Na+             3.564e-01   2.586e-01    -0.448    -0.587    -0.139     -2.10
   NaOH            9.273e-19   1.007e-18   -18.033   -17.997     0.036     (0)  
O(0)          8.874e-15
   O2              4.437e-15   4.816e-15   -14.353   -14.317     0.036     28.29

------------------------------Saturation indices-------------------------------

	Phase               SI   log IAP   log K(278 K,   1 atm)

	H2(g)           -39.46    -42.50   -3.03  H2
	H2O(g)           -2.06     -0.01    2.06  H2O
	Halite           -2.74     -1.21    1.53  NaCl
	O2(g)           -11.60    -14.32   -2.71  O2


Reaction step 15.

Using solution 1.	
Using temperature 1.	
Using pressure 1.	
Using reaction 1.	

Reaction 1.	

	  4.758e-01 moles of the following reaction have been added:

	                 Relative
	Reactant            moles

	NaCl                 1.00000

	                 Relative
	Element             moles
	Cl                   1.00000
	Na                   1.00000

-----------------------------Solution composition------------------------------

	Elements           Molality       Moles

	Cl                4.758e-01   4.758e-01
	Na                4.758e-01   4.758e-01

----------------------------Description of solution----------------------------

                                       pH  =   7.338      Charge balance
                                       pe  =  -0.108      Adjusted to redox equilibrium
       Specific Conductance (uS/cm, 5 oC) = 27090
                          Density (g/cm3)  =   1.02025
                        Activity of water  =   0.984
                           Ionic strength  =   4.758e-01
                       Mass of water (kg)  =   1.000e+00
                 Total alkalinity (eq/kg)  =  -2.899e-19
                    Total carbon (mol/kg)  =   0.000e+00
                       Total CO2 (mol/kg)  =   0.000e+00
                      Temperature (deg C)  =   5.00
                  Electrical balance (eq)  =  -7.255e-17
 Percent error, 100*(Cat-|An|)/(Cat+|An|)  =  -0.00
                               Iterations  =  24
                                  Total H  = 1.110124e+02
                                  Total O  = 5.550622e+01

----------------------------Distribution of species----------------------------

                                               Log       Log       Log    mole V
   Species          Molality    Activity  Molality  Activity     Gamma   cm3/mol

   H+              5.962e-08   4.597e-08    -7.225    -7.338    -0.113      0.00
   OH-             5.962e-08   3.841e-08    -7.225    -7.416    -0.191     -4.49
   H2O             5.551e+01   9.838e-01     1.744    -0.007     0.000     18.02
Cl            4.758e-01
   Cl-             4.758e-01   3.116e-01    -0.323    -0.506    -0.184     17.49
H(0)          5.472e-18
   H2              2.736e-18   3.052e-18   -17.563   -17.515     0.048     28.63
Na            4.758e-01
   Na+             4.758e-01   3.415e-01    -0.323    -0.467    -0.144     -2.00
   NaOH            1.176e-18   1.312e-18   -17.930   -17.882     0.048     (0)  
O(0)          0.000e+00
   O2              0.000e+00   0.000e+00   -64.330   -64.282     0.048     28.29

------------------------------Saturation indices-------------------------------

	Phase               SI   log IAP   log K(278 K,   1 atm)

	H2(g)           -14.48    -17.52   -3.03  H2
	H2O(g)           -2.06     -0.01    2.06  H2O
	Halite           -2.51     -0.97    1.53  NaCl
	O2(g)           -61.57    -64.28   -2.71  O2


Reaction step 16.

Using solution 1.	
Using temperature 1.	
Using pressure 1.	
Using reaction 1.	

Reaction 1.	

	  4.832e-01 moles of the following reaction have been added:

	                 Relative
	Reactant            moles

	NaCl                 1.00000

	                 Relative
	Element             moles
	Cl                   1.00000
	Na                   1.00000

-----------------------------Solution composition------------------------------

	Elements           Molality       Moles

	Cl                4.832e-01   4.832e-01
	Na                4.832e-01   4.832e-01

----------------------------Description of solution----------------------------

                                       pH  =   7.337      Charge balance
                                       pe  =  -0.459      Adjusted to redox equilibrium
       Specific Conductance (uS/cm, 5 oC) = 27434
                          Density (g/cm3)  =   1.02056
                        Activity of water  =   0.984
                           Ionic strength  =   4.832e-01
                       Mass of water (kg)  =   1.000e+00
                 Total alkalinity (eq/kg)  =  -8.892e-18
                    Total carbon (mol/kg)  =   0.000e+00
                       Total CO2 (mol/kg)  =   0.000e+00
                      Temperature (deg C)  =   5.00
                  Electrical balance (eq)  =  -1.190e-15
 Percent error, 100*(Cat-|An|)/(Cat+|An|)  =  -0.00
                               Iterations  =  26
                                  Total H  = 1.110124e+02
                                  Total O  = 5.550622e+01

----------------------------Distribution of species----------------------------

                                               Log       Log       Log    mole V
   Species          Molality    Activity  Molality  Activity     Gamma   cm3/mol

   H+              5.969e-08   4.599e-08    -7.224    -7.337    -0.113      0.00
   OH-             5.969e-08   3.838e-08    -7.224    -7.416    -0.192     -4.47
   H2O             5.551e+01   9.836e-01     1.744    -0.007     0.000     18.02
Cl            4.832e-01
   Cl-             4.832e-01   3.159e-01    -0.316    -0.500    -0.185     17.49
H(0)          2.751e-17
   H2              1.375e-17   1.537e-17   -16.862   -16.813     0.048     28.63
Na            4.832e-01
   Na+             4.832e-01   3.467e-01    -0.316    -0.460    -0.144     -1.99
   NaOH            1.191e-18   1.331e-18   -17.924   -17.876     0.048     (0)  
O(0)          0.000e+00
   O2              0.000e+00   0.000e+00   -65.735   -65.686     0.048     28.29

------------------------------Saturation indices-------------------------------

	Phase               SI   log IAP   log K(278 K,   1 atm)

	H2(g)           -13.78    -16.81   -3.03  H2
	H2O(g)           -2.06     -0.01    2.06  H2O
	Halite           -2.49     -0.96    1.53  NaCl
	O2(g)           -62.97    -65.69   -2.71  O2


Reaction step 17.

Using solution 1.	
Using temperature 1.	
Using pressure 1.	
Using reaction 1.	

Reaction 1.	

	  5.000e-01 moles of the following reaction have been added:

	                 Relative
	Reactant            moles

	NaCl                 1.00000

	                 Relative
	Element             moles
	Cl                   1.00000
	Na                   1.00000

-----------------------------Solution composition------------------------------

	Elements           Molality       Moles

	Cl                5.000e-01   5.000e-01
	Na                5.000e-01   5.000e-01

----------------------------Description of solution----------------------------

                                       pH  =   7.337      Charge balance
                                       pe  =  12.406      Adjusted to redox equilibrium
       Specific Conductance (uS/cm, 5 oC) = 28208
                          Density (g/cm3)  =   1.02126
                        Activity of water  =   0.983
                           Ionic strength  =   5.000e-01
                       Mass of water (kg)  =   1.000e+00
                 Total alkalinity (eq/kg)  =  -2.526e-17
                    Total carbon (mol/kg)  =   0.000e+00
                       Total CO2 (mol/kg)  =   0.000e+00
                      Temperature (deg C)  =   5.00
                  Electrical balance (eq)  =  -6.821e-17
 Percent error, 100*(Cat-|An|)/(Cat+|An|)  =  -0.00
                               Iterations  =  25
                                  Total H  = 1.110124e+02
                                  Total O  = 5.550622e+01

----------------------------Distribution of species----------------------------

                                               Log       Log       Log    mole V
   Species          Molality    Activity  Molality  Activity     Gamma   cm3/mol

   H+              5.984e-08   4.604e-08    -7.223    -7.337    -0.114      0.00
   OH-             5.984e-08   3.832e-08    -7.223    -7.417    -0.194     -4.44
   H2O             5.551e+01   9.830e-01     1.744    -0.007     0.000     18.02
Cl            5.000e-01
   Cl-             5.000e-01   3.257e-01    -0.301    -0.487    -0.186     17.50
H(0)          0.000e+00
   H2              0.000e+00   0.000e+00   -42.592   -42.542     0.050     28.63
Na            5.000e-01
   Na+             5.000e-01   3.585e-01    -0.301    -0.446    -0.144     -1.98
   NaOH            1.224e-18   1.374e-18   -17.912   -17.862     0.050     (0)  
O(0)          1.052e-14
   O2              5.258e-15   5.899e-15   -14.279   -14.229     0.050     28.29

------------------------------Saturation indices-------------------------------

	Phase               SI   log IAP   log K(278 K,   1 atm)

	H2(g)           -39.51    -42.54   -3.03  H2
	H2O(g)           -2.06     -0.01    2.06  H2O
	Halite           -2.47     -0.93    1.53  NaCl
	O2(g)           -11.51    -14.23   -2.71  O2


Reaction step 18.

Using solution 1.	
Using temperature 1.	
Using pressure 1.	
Using reaction 1.	

Reaction 1.	

	  5.012e-01 moles of the following reaction have been added:

	                 Relative
	Reactant            moles

	NaCl                 1.00000

	                 Relative
	Element             moles
	Cl                   1.00000
	Na                   1.00000

-----------------------------Solution composition------------------------------

	Elements           Molality       Moles

	Cl                5.012e-01   5.012e-01
	Na                5.012e-01   5.012e-01

----------------------------Description of solution----------------------------

                                       pH  =   7.337      Charge balance
                                       pe  =  -0.522      Adjusted to redox equilibrium
       Specific Conductance (uS/cm, 5 oC) = 28263
                          Density (g/cm3)  =   1.02131
                        Activity of water  =   0.983
                           Ionic strength  =   5.012e-01
                       Mass of water (kg)  =   1.000e+00
                 Total alkalinity (eq/kg)  =  -6.580e-16
                    Total carbon (mol/kg)  =   0.000e+00
                       Total CO2 (mol/kg)  =   0.000e+00
                      Temperature (deg C)  =   5.00
                  Electrical balance (eq)  =  -2.816e-12
 Percent error, 100*(Cat-|An|)/(Cat+|An|)  =  -0.00
                               Iterations  =  13
                                  Total H  = 1.110124e+02
                                  Total O  = 5.550622e+01

----------------------------Distribution of species----------------------------

                                               Log       Log       Log    mole V
   Species          Molality    Activity  Molality  Activity     Gamma   cm3/mol

   H+              5.985e-08   4.605e-08    -7.223    -7.337    -0.114      0.00
   OH-             5.985e-08   3.831e-08    -7.223    -7.417    -0.194     -4.43
   H2O             5.551e+01   9.830e-01     1.744    -0.007     0.000     18.02
Cl            5.012e-01
   Cl-             5.012e-01   3.264e-01    -0.300    -0.486    -0.186     17.50
H(0)          3.667e-17
   H2              1.833e-17   2.058e-17   -16.737   -16.687     0.050     28.63
Na            5.012e-01
   Na+             5.012e-01   3.593e-01    -0.300    -0.445    -0.145     -1.98
   NaOH            1.227e-18   1.377e-18   -17.911   -17.861     0.050     (0)  
O(0)          0.000e+00
   O2              0.000e+00   0.000e+00   -65.990   -65.940     0.050     28.29

------------------------------Saturation indices-------------------------------

	Phase               SI   log IAP   log K(278 K,   1 atm)

	H2(g)           -13.65    -16.69   -3.03  H2
	H2O(g)           -2.06     -0.01    2.06  H2O
	Halite           -2.46     -0.93    1.53  NaCl
	O2(g)           -63.23    -65.94   -2.71  O2


Reaction step 19.

Using solution 1.	
Using temperature 1.	
Using pressure 1.	
Using reaction 1.	

Reaction 1.	

	  5.019e-01 moles of the following reaction have been added:

	                 Relative
	Reactant            moles

	NaCl                 1.00000

	                 Relative
	Element             moles
	Cl                   1.00000
	Na                   1.00000

-----------------------------Solution composition------------------------------

	Elements           Molality       Moles

	Cl                5.019e-01   5.019e-01
	Na                5.019e-01   5.019e-01

----------------------------Description of solution----------------------------

                                       pH  =   7.337      Charge balance
                                       pe  =  11.766      Adjusted to redox equilibrium
       Specific Conductance (uS/cm, 5 oC) = 28295
                          Density (g/cm3)  =   1.02134
                        Activity of water  =   0.983
                           Ionic strength  =   5.019e-01
                       Mass of water (kg)  =   1.000e+00
                 Total alkalinity (eq/kg)  =  -4.958e-16
                    Total carbon (mol/kg)  =   0.000e+00
                       Total CO2 (mol/kg)  =   0.000e+00
                      Temperature (deg C)  =   5.00
                  Electrical balance (eq)  =  -2.119e-12
 Percent error, 100*(Cat-|An|)/(Cat+|An|)  =  -0.00
                               Iterations  =  37
                                  Total H  = 1.110124e+02
                                  Total O  = 5.550622e+01

----------------------------Distribution of species----------------------------

                                               Log       Log       Log    mole V
   Species          Molality    Activity  Molality  Activity     Gamma   cm3/mol

   H+              5.986e-08   4.605e-08    -7.223    -7.337    -0.114      0.00
   OH-             5.986e-08   3.831e-08    -7.223    -7.417    -0.194     -4.43
   H2O             5.551e+01   9.829e-01     1.744    -0.007     0.000     18.02
Cl            5.019e-01
   Cl-             5.019e-01   3.269e-01    -0.299    -0.486    -0.186     17.50
H(0)          0.000e+00
   H2              0.000e+00   0.000e+00   -41.313   -41.263     0.050     28.63
Na            5.019e-01
   Na+             5.019e-01   3.598e-01    -0.299    -0.444    -0.145     -1.98
   NaOH            1.228e-18   1.379e-18   -17.911   -17.861     0.050     (0)  
O(0)          2.908e-17
   O2              1.454e-17   1.632e-17   -16.837   -16.787     0.050     28.29

------------------------------Saturation indices-------------------------------

	Phase               SI   log IAP   log K(278 K,   1 atm)

	H2(g)           -38.23    -41.26   -3.03  H2
	H2O(g)           -2.06     -0.01    2.06  H2O
	Halite           -2.46     -0.93    1.53  NaCl
	O2(g)           -14.07    -16.79   -2.71  O2


Reaction step 20.

Using solution 1.	
Using temperature 1.	
Using pressure 1.	
Using reaction 1.	

Reaction 1.	

	  5.079e-01 moles of the following reaction have been added:

	                 Relative
	Reactant            moles

	NaCl                 1.00000

	                 Relative
	Element             moles
	Cl                   1.00000
	Na                   1.00000

-----------------------------Solution composition------------------------------

	Elements           Molality       Moles

	Cl                5.079e-01   5.079e-01
	Na                5.079e-01   5.079e-01

----------------------------Description of solution----------------------------

                                       pH  =   7.337      Charge balance
                                       pe  =  11.870      Adjusted to redox equilibrium
       Specific Conductance (uS/cm, 5 oC) = 28567
                          Density (g/cm3)  =   1.02158
                        Activity of water  =   0.983
                           Ionic strength  =   5.079e-01
                       Mass of water (kg)  =   1.000e+00
                 Total alkalinity (eq/kg)  =  -4.645e-18
                    Total carbon (mol/kg)  =   0.000e+00
                       Total CO2 (mol/kg)  =   0.000e+00
                      Temperature (deg C)  =   5.00
                  Electrical balance (eq)  =   2.444e-16
 Percent error, 100*(Cat-|An|)/(Cat+|An|)  =   0.00
                               Iterations  =  14
                                  Total H  = 1.110124e+02
                                  Total O  = 5.550622e+01

----------------------------Distribution of species----------------------------

                                               Log       Log       Log    mole V
   Species          Molality    Activity  Molality  Activity     Gamma   cm3/mol

   H+              5.991e-08   4.607e-08    -7.223    -7.337    -0.114      0.00
   OH-             5.991e-08   3.829e-08    -7.223    -7.417    -0.194     -4.42
   H2O             5.551e+01   9.827e-01     1.744    -0.008     0.000     18.02
Cl            5.079e-01
   Cl-             5.079e-01   3.303e-01    -0.294    -0.481    -0.187     17.51
H(0)          0.000e+00
   H2              0.000e+00   0.000e+00   -41.521   -41.470     0.051     28.63
Na            5.079e-01
   Na+             5.079e-01   3.640e-01    -0.294    -0.439    -0.145     -1.97
   NaOH            1.240e-18   1.394e-18   -17.907   -17.856     0.051     (0)  
O(0)          7.530e-17
   O2              3.765e-17   4.232e-17   -16.424   -16.373     0.051     28.29

------------------------------Saturation indices-------------------------------

	Phase               SI   log IAP   log K(278 K,   1 atm)

	H2(g)           -38.44    -41.47   -3.03  H2
	H2O(g)           -2.06     -0.01    2.06  H2O
	Halite           -2.45     -0.92    1.53  NaCl
	O2(g)           -13.66    -16.37   -2.71  O2


Reaction step 21.

Using solution 1.	
Using temperature 1.	
Using pressure 1.	
Using reaction 1.	

Reaction 1.	

	  6.556e-01 moles of the following reaction have been added:

	                 Relative
	Reactant            moles

	NaCl                 1.00000

	                 Relative
	Element             moles
	Cl                   1.00000
	Na                   1.00000

-----------------------------Solution composition------------------------------

	Elements           Molality       Moles

	Cl                6.556e-01   6.556e-01
	Na                6.556e-01   6.556e-01

----------------------------Description of solution----------------------------

                                       pH  =   7.333      Charge balance
                                       pe  =  -0.345      Adjusted to redox equilibrium
       Specific Conductance (uS/cm, 5 oC) = 35038
                          Density (g/cm3)  =   1.02768
                        Activity of water  =   0.978
                           Ionic strength  =   6.556e-01
                       Mass of water (kg)  =   1.000e+00
                 Total alkalinity (eq/kg)  =   8.132e-18
                    Total carbon (mol/kg)  =   0.000e+00
                       Total CO2 (mol/kg)  =   0.000e+00
                      Temperature (deg C)  =   5.00
                  Electrical balance (eq)  =  -2.414e-14
 Percent error, 100*(Cat-|An|)/(Cat+|An|)  =  -0.00
                               Iterations  =  23
                                  Total H  = 1.110124e+02
                                  Total O  = 5.550622e+01

----------------------------Distribution of species----------------------------

                                               Log       Log       Log    mole V
   Species          Molality    Activity  Molality  Activity     Gamma   cm3/mol

   OH-             6.103e-08   3.779e-08    -7.214    -7.423    -0.208     -4.09
   H+              6.103e-08   4.644e-08    -7.214    -7.333    -0.119      0.00
   H2O             5.551e+01   9.777e-01     1.744    -0.010     0.000     18.02
Cl            6.556e-01
   Cl-             6.556e-01   4.152e-01    -0.183    -0.382    -0.198     17.59
H(0)          1.594e-17
   H2              7.968e-18   9.266e-18   -17.099   -17.033     0.066     28.63
Na            6.556e-01
   Na+             6.556e-01   4.688e-01    -0.183    -0.329    -0.146     -1.86
   NaOH            1.523e-18   1.772e-18   -17.817   -17.752     0.066     (0)  
O(0)          0.000e+00
   O2              0.000e+00   0.000e+00   -65.318   -65.252     0.066     28.29

------------------------------Saturation indices-------------------------------

	Phase               SI   log IAP   log K(278 K,   1 atm)

	H2(g)           -14.00    -17.03   -3.03  H2
	H2O(g)           -2.07     -0.01    2.06  H2O
	Halite           -2.24     -0.71    1.53  NaCl
	O2(g)           -62.54    -65.25   -2.71  O2


Reaction step 22.

Using solution 1.	
Using temperature 1.	
Using pressure 1.	
Using reaction 1.	

Reaction 1.	

	  6.844e-01 moles of the following reaction have been added:

	                 Relative
	Reactant            moles

	NaCl                 1.00000

	                 Relative
	Element             moles
	Cl                   1.00000
	Na                   1.00000

-----------------------------Solution composition------------------------------

	Elements           Molality       Moles

	Cl                6.844e-01   6.844e-01
	Na                6.844e-01   6.844e-01

----------------------------Description of solution----------------------------

                                       pH  =   7.333      Charge balance
                                       pe  =  11.986      Adjusted to redox equilibrium
       Specific Conductance (uS/cm, 5 oC) = 36245
                          Density (g/cm3)  =   1.02886
                        Activity of water  =   0.977
                           Ionic strength  =   6.844e-01
                       Mass of water (kg)  =   1.000e+00
                 Total alkalinity (eq/kg)  =   1.242e-17
                    Total carbon (mol/kg)  =   0.000e+00
                       Total CO2 (mol/kg)  =   0.000e+00
                      Temperature (deg C)  =   5.00
                  Electrical balance (eq)  =  -4.742e-15
 Percent error, 100*(Cat-|An|)/(Cat+|An|)  =  -0.00
                               Iterations  =  17
                                  Total H  = 1.110124e+02
                                  Total O  = 5.550622e+01

----------------------------Distribution of species----------------------------

                                               Log       Log       Log    mole V
   Species          Molality    Activity  Molality  Activity     Gamma   cm3/mol

   OH-             6.122e-08   3.770e-08    -7.213    -7.424    -0.211     -4.03
   H+              6.122e-08   4.650e-08    -7.213    -7.333    -0.119      0.00
   H2O             5.551e+01   9.767e-01     1.744    -0.010     0.000     18.02
Cl            6.844e-01
   Cl-             6.844e-01   4.316e-01    -0.165    -0.365    -0.200     17.61
H(0)          0.000e+00
   H2              0.000e+00   0.000e+00   -41.764   -41.695     0.068     28.63
Na            6.844e-01
   Na+             6.844e-01   4.895e-01    -0.165    -0.310    -0.146     -1.84
   NaOH            1.577e-18   1.846e-18   -17.802   -17.734     0.068     (0)  
O(0)          2.015e-16
   O2              1.008e-16   1.180e-16   -15.997   -15.928     0.068     28.29

------------------------------Saturation indices-------------------------------

	Phase               SI   log IAP   log K(278 K,   1 atm)

	H2(g)           -38.66    -41.70   -3.03  H2
	H2O(g)           -2.07     -0.01    2.06  H2O
	Halite           -2.21     -0.68    1.53  NaCl
	O2(g)           -13.21    -15.93   -2.71  O2


Reaction step 23.

Using solution 1.	
Using temperature 1.	
Using pressure 1.	
Using reaction 1.	

Reaction 1.	

	  7.247e-01 moles of the following reaction have been added:

	                 Relative
	Reactant            moles

	NaCl                 1.00000

	                 Relative
	Element             moles
	Cl                   1.00000
	Na                   1.00000

-----------------------------Solution composition------------------------------

	Elements           Molality       Moles

	Cl                7.247e-01   7.247e-01
	Na                7.247e-01   7.247e-01

----------------------------Description of solution----------------------------

                                       pH  =   7.332      Charge balance
                                       pe  =  -0.364      Adjusted to redox equilibrium
       Specific Conductance (uS/cm, 5 oC) = 37904
                          Density (g/cm3)  =   1.03050
                        Activity of water  =   0.975
                           Ionic strength  =   7.247e-01
                       Mass of water (kg)  =   1.000e+00
                 Total alkalinity (eq/kg)  =  -1.214e-16
                    Total carbon (mol/kg)  =   0.000e+00
                       Total CO2 (mol/kg)  =   0.000e+00
                      Temperature (deg C)  =   5.00
                  Electrical balance (eq)  =  -6.775e-09
 Percent error, 100*(Cat-|An|)/(Cat+|An|)  =  -0.00
                               Iterations  =  13
                                  Total H  = 1.110124e+02
                                  Total O  = 5.550622e+01

----------------------------Distribution of species----------------------------

                                               Log       Log       Log    mole V
   Species          Molality    Activity  Molality  Activity     Gamma   cm3/mol

   H+              6.147e-08   4.658e-08    -7.211    -7.332    -0.120      0.00
   OH-             6.147e-08   3.758e-08    -7.211    -7.425    -0.214     -3.94
   H2O             5.551e+01   9.754e-01     1.744    -0.011     0.000     18.02
Cl            7.247e-01
   Cl-             7.247e-01   4.543e-01    -0.140    -0.343    -0.203     17.63
H(0)          1.719e-17
   H2              8.594e-18   1.015e-17   -17.066   -16.993     0.072     28.63
Na            7.247e-01
   Na+             7.247e-01   5.187e-01    -0.140    -0.285    -0.145     -1.81
   NaOH            1.650e-18   1.949e-18   -17.783   -17.710     0.072     (0)  
O(0)          0.000e+00
   O2              0.000e+00   0.000e+00   -65.406   -65.334     0.072     28.29

------------------------------Saturation indices-------------------------------

	Phase               SI   log IAP   log K(278 K,   1 atm)

	H2(g)           -13.96    -16.99   -3.03  H2
	H2O(g)           -2.07     -0.01    2.06  H2O
	Halite           -2.16     -0.63    1.53  NaCl
	O2(g)           -62.62    -65.33   -2.71  O2


Reaction step 24.

Using solution 1.	
Using temperature 1.	
Using pressure 1.	
Using reaction 1.	

Reaction 1.	

	  7.875e-01 moles of the following reaction have been added:

	                 Relative
	Reactant            moles

	NaCl                 1.00000

	                 Relative
	Element             moles
	Cl                   1.00000
	Na                   1.00000

-----------------------------Solution composition------------------------------

	Elements           Molality       Moles

	Cl                7.875e-01   7.875e-01
	Na                7.875e-01   7.875e-01

----------------------------Description of solution----------------------------

                                       pH  =   7.331      Charge balance
                                       pe  =  11.761      Adjusted to redox equilibrium
       Specific Conductance (uS/cm, 5 oC) = 40442
                          Density (g/cm3)  =   1.03305
                        Activity of water  =   0.973
                           Ionic strength  =   7.875e-01
                       Mass of water (kg)  =   1.000e+00
                 Total alkalinity (eq/kg)  =  -5.308e-17
                    Total carbon (mol/kg)  =   0.000e+00
                       Total CO2 (mol/kg)  =   0.000e+00
                      Temperature (deg C)  =   5.00
                  Electrical balance (eq)  =  -1.957e-10
 Percent error, 100*(Cat-|An|)/(Cat+|An|)  =  -0.00
                               Iterations  =  12
                                  Total H  = 1.110124e+02
                                  Total O  = 5.550622e+01

----------------------------Distribution of species----------------------------

                                               Log       Log       Log    mole V
   Species          Molality    Activity  Molality  Activity     Gamma   cm3/mol

   H+              6.182e-08   4.669e-08    -7.209    -7.331    -0.122      0.00
   OH-             6.182e-08   3.741e-08    -7.209    -7.427    -0.218     -3.81
   H2O             5.551e+01   9.732e-01     1.744    -0.012     0.000     18.02
Cl            7.875e-01
   Cl-             7.875e-01   4.897e-01    -0.104    -0.310    -0.206     17.66
H(0)          0.000e+00
   H2              0.000e+00   0.000e+00   -41.320   -41.241     0.079     28.63
Na            7.875e-01
   Na+             7.875e-01   5.647e-01    -0.104    -0.248    -0.144     -1.76
   NaOH            1.762e-18   2.112e-18   -17.754   -17.675     0.079     (0)  
O(0)          2.409e-17
   O2              1.205e-17   1.444e-17   -16.919   -16.840     0.079     28.29

------------------------------Saturation indices-------------------------------

	Phase               SI   log IAP   log K(278 K,   1 atm)

	H2(g)           -38.21    -41.24   -3.03  H2
	H2O(g)           -2.07     -0.01    2.06  H2O
	Halite           -2.09     -0.56    1.53  NaCl
	O2(g)           -14.13    -16.84   -2.71  O2


Reaction step 25.

Using solution 1.	
Using temperature 1.	
Using pressure 1.	
Using reaction 1.	

Reaction 1.	

	  8.000e-01 moles of the following reaction have been added:

	                 Relative
	Reactant            moles

	NaCl                 1.00000

	                 Relative
	Element             moles
	Cl                   1.00000
	Na                   1.00000

-----------------------------Solution composition------------------------------

	Elements           Molality       Moles

	Cl                8.000e-01   8.000e-01
	Na                8.000e-01   8.000e-01

----------------------------Description of solution----------------------------

                                       pH  =   7.331      Charge balance
                                       pe  =  -0.546      Adjusted to redox equilibrium
       Specific Conductance (uS/cm, 5 oC) = 40939
                          Density (g/cm3)  =   1.03356
                        Activity of water  =   0.973
                           Ionic strength  =   8.000e-01
                       Mass of water (kg)  =   1.000e+00
                 Total alkalinity (eq/kg)  =  -6.401e-17
                    Total carbon (mol/kg)  =   0.000e+00
                       Total CO2 (mol/kg)  =   0.000e+00
                      Temperature (deg C)  =   5.00
                  Electrical balance (eq)  =  -1.071e-09
 Percent error, 100*(Cat-|An|)/(Cat+|An|)  =  -0.00
                               Iterations  =  41
                                  Total H  = 1.110124e+02
                                  Total O  = 5.550622e+01

----------------------------Distribution of species----------------------------

                                               Log       Log       Log    mole V
   Species          Molality    Activity  Molality  Activity     Gamma   cm3/mol

   H+              6.189e-08   4.671e-08    -7.208    -7.331    -0.122      0.00
   OH-             6.189e-08   3.738e-08    -7.208    -7.427    -0.219     -3.78
   H2O             5.551e+01   9.728e-01     1.744    -0.012     0.000     18.02
Cl            8.000e-01
   Cl-             8.000e-01   4.967e-01    -0.097    -0.304    -0.207     17.66
H(0)          3.938e-17
   H2              1.969e-17   2.367e-17   -16.706   -16.626     0.080     28.63
Na            8.000e-01
   Na+             8.000e-01   5.739e-01    -0.097    -0.241    -0.144     -1.75
   NaOH            1.784e-18   2.145e-18   -17.749   -17.669     0.080     (0)  
O(0)          0.000e+00
   O2              0.000e+00   0.000e+00   -66.151   -66.071     0.080     28.29

------------------------------Saturation indices-------------------------------

	Phase               SI   log IAP   log K(278 K,   1 atm)

	H2(g)           -13.59    -16.63   -3.03  H2
	H2O(g)           -2.07     -0.01    2.06  H2O
	Halite           -2.08     -0.55    1.53  NaCl
	O2(g)           -63.36    -66.07   -2.71  O2


Reaction step 26.

Using solution 1.	
Using temperature 1.	
Using pressure 1.	
Using reaction 1.	

Reaction 1.	

	  8.411e-01 moles of the following reaction have been added:

	                 Relative
	Reactant            moles

	NaCl                 1.00000

	                 Relative
	Element             moles
	Cl                   1.00000
	Na                   1.00000

-----------------------------Solution composition------------------------------

	Elements           Molality       Moles

	Cl                8.411e-01   8.412e-01
	Na                8.411e-01   8.412e-01

----------------------------Description of solution----------------------------

                                       pH  =   7.330      Charge balance
                                       pe  =  -0.617      Adjusted to redox equilibrium
       Specific Conductance (uS/cm, 5 oC) = 42561
                          Density (g/cm3)  =   1.03522
                        Activity of water  =   0.971
                           Ionic strength  =   8.412e-01
                       Mass of water (kg)  =   1.000e+00
                 Total alkalinity (eq/kg)  =   5.176e-17
                    Total carbon (mol/kg)  =   0.000e+00
                       Total CO2 (mol/kg)  =   0.000e+00
                      Temperature (deg C)  =   5.00
                  Electrical balance (eq)  =  -7.813e-13
 Percent error, 100*(Cat-|An|)/(Cat+|An|)  =  -0.00
                               Iterations  =  65
                                  Total H  = 1.110124e+02
                                  Total O  = 5.550622e+01

----------------------------Distribution of species----------------------------

                                               Log       Log       Log    mole V
   Species          Molality    Activity  Molality  Activity     Gamma   cm3/mol

   OH-             6.210e-08   3.727e-08    -7.207    -7.429    -0.222     -3.70
   H+              6.210e-08   4.678e-08    -7.207    -7.330    -0.123      0.00
   H2O             5.551e+01   9.714e-01     1.744    -0.013     0.000     18.02
Cl            8.411e-01
   Cl-             8.411e-01   5.197e-01    -0.075    -0.284    -0.209     17.68
H(0)          5.406e-17
   H2              2.703e-17   3.281e-17   -16.568   -16.484     0.084     28.63
Na            8.411e-01
   Na+             8.411e-01   6.044e-01    -0.075    -0.219    -0.144     -1.72
   NaOH            1.856e-18   2.253e-18   -17.731   -17.647     0.084     (0)  
O(0)          0.000e+00
   O2              0.000e+00   0.000e+00   -66.440   -66.356     0.084     28.29

[...]

----------------------------Distribution of species----------------------------

                                               Log       Log       Log    mole V
   Species          Molality    Activity  Molality  Activity     Gamma   cm3/mol

   OH-             1.163e-06   5.173e-07    -5.935    -6.286    -0.352      4.28
   H+              1.163e-06   7.927e-07    -5.935    -6.101    -0.166      0.00
   H2O             5.551e+01   8.585e-01     1.744    -0.066     0.000     18.73
Cl            4.161e+00
   Cl-             4.161e+00   2.137e+00     0.619     0.330    -0.289     19.57
H(0)          5.844e-16
   H2              2.922e-16   7.617e-16   -15.534   -15.118     0.416     28.57
Na            4.161e+00
   Na+             4.161e+00   4.092e+00     0.619     0.612    -0.007      1.65
   NaOH            8.119e-17   2.117e-16   -16.090   -15.674     0.416     (0)  
O(0)          0.000e+00
   O2              0.000e+00   0.000e+00   -44.397   -43.981     0.416     33.72

------------------------------Saturation indices-------------------------------

	Phase               SI   log IAP   log K(368 K,   1 atm)

	H2(g)           -12.01    -15.12   -3.11  H2
	H2O(g)           -0.15     -0.07    0.08  H2O
	Halite           -0.77      0.94    1.71  NaCl
	O2(g)           -40.87    -43.98   -3.11  O2


------------------
End of simulation.
------------------

------------------------------------
Reading input data for simulation 7.
------------------------------------

	USE solution 1
	REACTION_TEMPERATURE
	 125.000000
	REACTION_PRESSURE
	 0.000000
	REACTION
	 NaCl 1
	0 0.706900 1.000000 2.000000 2.500000 3.534500
	USER_GRAPH
	-headings 125oC
	10 data 0, 16.632029, 17.160993, 18.622642, 19.141030, 19.404106,
	20 dim d(6)
	30 read d(1), d(2), d(3), d(4), d(5), d(6),
	40 if step_no = 1 then put(rho, 10)
	50 if step_no > 1 then Vm1 = (1e3 + tot("Cl") * 58.4428) / (tot("Cl") * rho) - 1e3 / (tot("Cl") * get(10))
	60 if step_no = 1 then dif = 0 else dif = Vm1 - d(step_no)
	62 if step_no = 1 then goto 90
	70 plot_xy tot("Na"), d(step_no), line_w = 0, color = Brown #aph_x tot("Na") # dif, str$(tc), str$(pressure), str$(step_no + get(1))
	80 plot_xy tot("Na"), Vm1, symbol = None, color = Brown #step_no = 6 then put(step_no + get(1), 1)
	90 end
	END
-----------------------------------------
Beginning of batch-reaction calculations.
-----------------------------------------

Reaction step 1.

Using solution 1.	
Using temperature 1.	
Using pressure 1.	
Using reaction 1.	

Reaction 1.	

	  0.000e+00 moles of the following reaction have been added:

	                 Relative
	Reactant            moles

	NaCl                 1.00000

	                 Relative
	Element             moles
	Cl                   1.00000
	Na                   1.00000

-----------------------------Solution composition------------------------------

	Elements           Molality       Moles

	Pure water     

----------------------------Description of solution----------------------------

                                       pH  =   5.945      Charge balance
                                       pe  =   1.057      Adjusted to redox equilibrium
       Specific Conductance (uS/cm, 125 oC) = 2
                          Density (g/cm3)  =   0.93903
                        Activity of water  =   1.000
                           Ionic strength  =   1.136e-06
                       Mass of water (kg)  =   1.000e+00
                 Total alkalinity (eq/kg)  =  -1.315e-15
                    Total carbon (mol/kg)  =   0.000e+00
                       Total CO2 (mol/kg)  =   0.000e+00
                      Temperature (deg C)  = 125.00
                           Pressure (atm)  =  2.29
                  Electrical balance (eq)  =   1.315e-15
 Percent error, 100*(Cat-|An|)/(Cat+|An|)  =   0.00
                               Iterations  =   9
                                  Total H  = 1.110124e+02
                                  Total O  = 5.550622e+01

----------------------------Distribution of species----------------------------

                                               Log       Log       Log    mole V
   Species          Molality    Activity  Molality  Activity     Gamma   cm3/mol

   H+              1.136e-06   1.135e-06    -5.944    -5.945    -0.001      0.00
   OH-             1.136e-06   1.135e-06    -5.944    -5.945    -0.001     -9.11
   H2O             5.551e+01   1.000e+00     1.744    -0.000     0.000     19.19
H(0)          6.655e-18
   H2              3.328e-18   3.328e-18   -17.478   -17.478     0.000     28.56
O(0)          1.103e-33
   O2              5.516e-34   5.516e-34   -33.258   -33.258     0.000     34.83

------------------------------Saturation indices-------------------------------

	Phase               SI   log IAP   log K(398 K,   2 atm)

	H2(g)           -14.43    -17.48   -3.05  H2
	H2O(g)            0.35     -0.00   -0.35  H2O
	O2(g)           -30.17    -33.26   -3.09  O2


Reaction step 2.

Using solution 1.	
Using temperature 1.	
Using pressure 1.	
Using reaction 1.	

Reaction 1.	

	  7.069e-01 moles of the following reaction have been added:

	                 Relative
	Reactant            moles

	NaCl                 1.00000

	                 Relative
	Element             moles
	Cl                   1.00000
	Na                   1.00000

-----------------------------Solution composition------------------------------

	Elements           Molality       Moles

	Cl                7.069e-01   7.069e-01
	Na                7.069e-01   7.069e-01

----------------------------Description of solution----------------------------

                                       pH  =   5.891      Charge balance
                                       pe  =   0.455      Adjusted to redox equilibrium
       Specific Conductance (uS/cm, 125 oC) = 228485
                          Density (g/cm3)  =   0.96668
                        Activity of water  =   0.976
                           Ionic strength  =   7.069e-01
                       Mass of water (kg)  =   1.000e+00
                 Total alkalinity (eq/kg)  =  -2.385e-16
                    Total carbon (mol/kg)  =   0.000e+00
                       Total CO2 (mol/kg)  =   0.000e+00
                      Temperature (deg C)  = 125.00
                           Pressure (atm)  =  2.29
                  Electrical balance (eq)  =  -2.540e-11
 Percent error, 100*(Cat-|An|)/(Cat+|An|)  =  -0.00
                               Iterations  =  11
                                  Total H  = 1.110124e+02
                                  Total O  = 5.550622e+01

----------------------------Distribution of species----------------------------

                                               Log       Log       Log    mole V
   Species          Molality    Activity  Molality  Activity     Gamma   cm3/mol

   H+              1.808e-06   1.284e-06    -5.743    -5.891    -0.149      0.00
   OH-             1.808e-06   9.784e-07    -5.743    -6.009    -0.267     -5.83
   H2O             5.551e+01   9.760e-01     1.744    -0.011     0.000     19.19
Cl            7.069e-01
   Cl-             7.069e-01   3.920e-01    -0.151    -0.407    -0.256     15.97
H(0)          1.155e-16
   H2              5.773e-17   6.794e-17   -16.239   -16.168     0.071     28.56
Na            7.069e-01
   Na+             7.069e-01   4.505e-01    -0.151    -0.346    -0.196      1.39
   NaOH            3.742e-17   4.403e-17   -16.427   -16.356     0.071     (0)  
O(0)          2.142e-36
   O2              1.071e-36   1.261e-36   -35.970   -35.899     0.071     34.83

------------------------------Saturation indices-------------------------------

	Phase               SI   log IAP   log K(398 K,   2 atm)

	H2(g)           -13.12    -16.17   -3.05  H2
	H2O(g)            0.34     -0.01   -0.35  H2O
	Halite           -2.50     -0.75    1.75  NaCl
	O2(g)           -32.81    -35.90   -3.09  O2


Reaction step 3.

Using solution 1.	
Using temperature 1.	
Using pressure 1.	
Using reaction 1.	

Reaction 1.	

	  1.000e+00 moles of the following reaction have been added:

	                 Relative
	Reactant            moles

	NaCl                 1.00000

	                 Relative
	Element             moles
	Cl                   1.00000
	Na                   1.00000

-----------------------------Solution composition------------------------------

	Elements           Molality       Moles

	Cl                1.000e+00   1.000e+00
	Na                1.000e+00   1.000e+00

----------------------------Description of solution----------------------------

                                       pH  =   5.886      Charge balance
                                       pe  =   5.123      Adjusted to redox equilibrium
       Specific Conductance (uS/cm, 125 oC) = 290694
                          Density (g/cm3)  =   0.97752
                        Activity of water  =   0.966
                           Ionic strength  =   1.000e+00
                       Mass of water (kg)  =   1.000e+00
                 Total alkalinity (eq/kg)  =   3.023e-11
                    Total carbon (mol/kg)  =   0.000e+00
                       Total CO2 (mol/kg)  =   0.000e+00
                      Temperature (deg C)  = 125.00
                           Pressure (atm)  =  2.29
                  Electrical balance (eq)  =  -2.882e-09
 Percent error, 100*(Cat-|An|)/(Cat+|An|)  =  -0.00
                               Iterations  =   5
                                  Total H  = 1.110124e+02
                                  Total O  = 5.550622e+01

----------------------------Distribution of species----------------------------

                                               Log       Log       Log    mole V
   Species          Molality    Activity  Molality  Activity     Gamma   cm3/mol

   OH-             1.861e-06   9.557e-07    -5.730    -6.020    -0.289     -4.97
   H+              1.861e-06   1.301e-06    -5.730    -5.886    -0.155      0.00
   H2O             5.551e+01   9.660e-01     1.744    -0.015     0.000     19.19
Cl            1.000e+00
   Cl-             1.000e+00   5.315e-01     0.000    -0.274    -0.274     16.34
H(0)          5.110e-26
   H2              2.555e-26   3.217e-26   -25.593   -25.493     0.100     28.56
Na            1.000e+00
   Na+             1.000e+00   6.406e-01     0.000    -0.193    -0.193      1.51
   NaOH            4.858e-17   6.116e-17   -16.314   -16.214     0.100     (0)  
O(0)          8.752e-18
   O2              4.376e-18   5.509e-18   -17.359   -17.259     0.100     34.83

------------------------------Saturation indices-------------------------------

	Phase               SI   log IAP   log K(398 K,   2 atm)

	H2(g)           -22.44    -25.49   -3.05  H2
	H2O(g)            0.34     -0.02   -0.35  H2O
	Halite           -2.22     -0.47    1.75  NaCl
	O2(g)           -14.17    -17.26   -3.09  O2


Reaction step 4.

Using solution 1.	
Using temperature 1.	
Using pressure 1.	
Using reaction 1.	

Reaction 1.	

	  2.000e+00 moles of the following reaction have been added:

	                 Relative
	Reactant            moles

	NaCl                 1.00000

	                 Relative
	Element             moles
	Cl                   1.00000
	Na                   1.00000

-----------------------------Solution composition------------------------------

	Elements           Molality       Moles

	Cl                2.000e+00   2.000e+00
	Na                2.000e+00   2.000e+00

----------------------------Description of solution----------------------------

                                       pH  =   5.877      Charge balance
                                       pe  =   0.173      Adjusted to redox equilibrium
       Specific Conductance (uS/cm, 125 oC) = 468481
                          Density (g/cm3)  =   1.01264
                        Activity of water  =   0.932
                           Ionic strength  =   2.000e+00
                       Mass of water (kg)  =   1.000e+00
                 Total alkalinity (eq/kg)  =   1.176e-16
                    Total carbon (mol/kg)  =   0.000e+00
                       Total CO2 (mol/kg)  =   0.000e+00
                      Temperature (deg C)  = 125.00
                           Pressure (atm)  =  2.29
                  Electrical balance (eq)  =  -7.938e-14
 Percent error, 100*(Cat-|An|)/(Cat+|An|)  =  -0.00
                               Iterations  =  18
                                  Total H  = 1.110124e+02
                                  Total O  = 5.550622e+01

----------------------------Distribution of species----------------------------

                                               Log       Log       Log    mole V
   Species          Molality    Activity  Molality  Activity     Gamma   cm3/mol

   OH-             1.950e-06   9.045e-07    -5.710    -6.044    -0.334     -2.38
   H+              1.950e-06   1.326e-06    -5.710    -5.877    -0.167      0.00
   H2O             5.551e+01   9.320e-01     1.744    -0.031     0.000     19.19
Cl            2.000e+00
   Cl-             2.000e+00   9.942e-01     0.301    -0.003    -0.304     17.25
H(0)          3.355e-16
   H2              1.678e-16   2.659e-16   -15.775   -15.575     0.200     28.56
Na            2.000e+00
   Na+             2.000e+00   1.397e+00     0.301     0.145    -0.156      1.75
   NaOH            7.964e-17   1.262e-16   -16.099   -15.899     0.200     (0)  
O(0)          9.471e-38
   O2              4.735e-38   7.505e-38   -37.325   -37.125     0.200     34.83

------------------------------Saturation indices-------------------------------

	Phase               SI   log IAP   log K(398 K,   2 atm)

	H2(g)           -12.53    -15.58   -3.05  H2
	H2O(g)            0.32     -0.03   -0.35  H2O
	Halite           -1.61      0.14    1.75  NaCl
	O2(g)           -34.03    -37.12   -3.09  O2


Reaction step 5.

Using solution 1.	
Using temperature 1.	
Using pressure 1.	
Using reaction 1.	

Reaction 1.	

	  2.500e+00 moles of the following reaction have been added:

	                 Relative
	Reactant            moles

	NaCl                 1.00000

	                 Relative
	Element             moles
	Cl                   1.00000
	Na                   1.00000

-----------------------------Solution composition------------------------------

	Elements           Molality       Moles

	Cl                2.500e+00   2.500e+00
	Na                2.500e+00   2.500e+00

----------------------------Description of solution----------------------------

                                       pH  =   5.876      Charge balance
                                       pe  =   4.900      Adjusted to redox equilibrium
       Specific Conductance (uS/cm, 125 oC) = 559743
                          Density (g/cm3)  =   1.02928
                        Activity of water  =   0.915
                           Ionic strength  =   2.500e+00
                       Mass of water (kg)  =   1.000e+00
                 Total alkalinity (eq/kg)  =   1.801e-16
                    Total carbon (mol/kg)  =   0.000e+00
                       Total CO2 (mol/kg)  =   0.000e+00
                      Temperature (deg C)  = 125.00
                           Pressure (atm)  =  2.29
                  Electrical balance (eq)  =  -5.454e-11
 Percent error, 100*(Cat-|An|)/(Cat+|An|)  =  -0.00
                               Iterations  =   6
                                  Total H  = 1.110124e+02
                                  Total O  = 5.550622e+01

----------------------------Distribution of species----------------------------

                                               Log       Log       Log    mole V
   Species          Molality    Activity  Molality  Activity     Gamma   cm3/mol

   OH-             1.969e-06   8.858e-07    -5.706    -6.053    -0.347     -1.19
   H+              1.969e-06   1.330e-06    -5.706    -5.876    -0.171      0.00
   H2O             5.551e+01   9.150e-01     1.744    -0.039     0.000     19.19
Cl            2.500e+00
   Cl-             2.500e+00   1.226e+00     0.398     0.088    -0.310     17.60
H(0)          1.056e-25
   H2              5.281e-26   9.392e-26   -25.277   -25.027     0.250     28.56
Na            2.500e+00
   Na+             2.500e+00   1.855e+00     0.398     0.268    -0.130      1.83
   NaOH            9.230e-17   1.641e-16   -16.035   -15.785     0.250     (0)  
O(0)          6.521e-19
   O2              3.260e-19   5.798e-19   -18.487   -18.237     0.250     34.83

------------------------------Saturation indices-------------------------------

	Phase               SI   log IAP   log K(398 K,   2 atm)

	H2(g)           -21.98    -25.03   -3.05  H2
	H2O(g)            0.31     -0.04   -0.35  H2O
	Halite           -1.39      0.36    1.75  NaCl
	O2(g)           -15.14    -18.24   -3.09  O2


Reaction step 6.

Using solution 1.	
Using temperature 1.	
Using pressure 1.	
Using reaction 1.	

Reaction 1.	

	  3.534e+00 moles of the following reaction have been added:

	                 Relative
	Reactant            moles

	NaCl                 1.00000

	                 Relative
	Element             moles
	Cl                   1.00000
	Na                   1.00000

-----------------------------Solution composition------------------------------

	Elements           Molality       Moles

	Cl                3.535e+00   3.535e+00
	Na                3.535e+00   3.534e+00

----------------------------Description of solution----------------------------

                                       pH  =   5.877      Charge balance
                                       pe  =   0.159      Adjusted to redox equilibrium
       Specific Conductance (uS/cm, 125 oC) = 803123
                          Density (g/cm3)  =   1.06198
                        Activity of water  =   0.880
                           Ionic strength  =   3.535e+00
                       Mass of water (kg)  =   1.000e+00
                 Total alkalinity (eq/kg)  =   2.456e-16
                    Total carbon (mol/kg)  =   0.000e+00
                       Total CO2 (mol/kg)  =   0.000e+00
                      Temperature (deg C)  = 125.00
                           Pressure (atm)  =  2.29
                  Electrical balance (eq)  =  -2.442e-14
 Percent error, 100*(Cat-|An|)/(Cat+|An|)  =  -0.00
                               Iterations  =  20
                                  Total H  = 1.110124e+02
                                  Total O  = 5.550622e+01

----------------------------Distribution of species----------------------------

                                               Log       Log       Log    mole V
   Species          Molality    Activity  Molality  Activity     Gamma   cm3/mol

   OH-             1.987e-06   8.534e-07    -5.702    -6.069    -0.367      1.15
   H+              1.987e-06   1.327e-06    -5.702    -5.877    -0.175      0.00
   H2O             5.551e+01   8.798e-01     1.744    -0.056     0.000     19.19
Cl            3.535e+00
   Cl-             3.535e+00   1.715e+00     0.548     0.234    -0.314     18.19
H(0)          2.512e-16
   H2              1.256e-16   2.834e-16   -15.901   -15.548     0.353     28.56
Na            3.535e+00
   Na+             3.535e+00   3.017e+00     0.548     0.480    -0.069      1.96
   NaOH            1.140e-16   2.573e-16   -15.943   -15.590     0.353     (0)  
O(0)          5.218e-38
   O2              2.609e-38   5.887e-38   -37.584   -37.230     0.353     34.83

------------------------------Saturation indices-------------------------------

	Phase               SI   log IAP   log K(398 K,   2 atm)

	H2(g)           -12.50    -15.55   -3.05  H2
	H2O(g)            0.30     -0.06   -0.35  H2O
	Halite           -1.04      0.71    1.75  NaCl
	O2(g)           -34.14    -37.23   -3.09  O2


------------------
End of simulation.
------------------

------------------------------------
Reading input data for simulation 8.
------------------------------------

-----------
End of run.
-----------

