WARNING: Database file from DATABASE keyword is used; command line argument ignored.
   Input file: Vm_NaCl_sol
  Output file: Vm_NaCl_sol.out
Database file: ../database/phreeqc.dat

------------------
Reading data base.
------------------

	SOLUTION_MASTER_SPECIES
	SOLUTION_SPECIES
	PHASES
	EXCHANGE_MASTER_SPECIES
	EXCHANGE_SPECIES
	SURFACE_MASTER_SPECIES
	SURFACE_SPECIES
	RATES
	END
------------------------------------
Reading input data for simulation 1.
------------------------------------

	DATABASE ../database/phreeqc.dat
	SELECTED_OUTPUT 101
	    file                 Vm_NaCl_sol_101.sel
	USER_PUNCH 101
	    headings Mu SC
	    start
	10 PUNCH STR_F$(MU, 20, 12)
	20 PUNCH STR_F$(SC, 20, 10)
	    end
	SOLUTION 1
	 pH 7 charge
	END
-------------------------------------------
Beginning of initial solution calculations.
-------------------------------------------

Initial solution 1.	

-----------------------------Solution composition------------------------------

	Elements           Molality       Moles

	Pure water     

----------------------------Description of solution----------------------------

                                       pH  =   6.997      Charge balance
                                       pe  =   4.000    
      Specific Conductance (µS/cm,  25°C)  = 0
                          Density (g/cm³)  =   0.99704
                               Volume (L)  =   1.00297
                        Viscosity (mPa s)  =   0.89002
                        Activity of water  =   1.000
                 Ionic strength (mol/kgw)  =   1.006e-07
                       Mass of water (kg)  =   1.000e+00
                 Total alkalinity (eq/kg)  =   3.040e-17
                         Temperature (°C)  =  25.00
                  Electrical balance (eq)  =  -3.040e-17
 Percent error, 100*(Cat-|An|)/(Cat+|An|)  =  -0.00
                               Iterations  =   2
                                  Total H  = 1.110124e+02
                                  Total O  = 5.550622e+01

----------------------------Distribution of species----------------------------

                                               Log       Log       Log    mole V
   Species          Molality    Activity  Molality  Activity     Gamma   cm³/mol

   OH-             1.006e-07   1.006e-07    -6.997    -6.997    -0.000     -4.14
   H+              1.006e-07   1.006e-07    -6.997    -6.997    -0.000      0.00
   H2O             5.551e+01   1.000e+00     1.744    -0.000     0.000     18.07
H(0)          1.433e-25
   H2              7.166e-26   7.166e-26   -25.145   -25.145     0.000     28.61
O(0)          0.000e+00
   O2              0.000e+00   0.000e+00   -42.090   -42.090     0.000     30.40

------------------------------Saturation indices-------------------------------

  Phase               SI** log IAP   log K(298 K,   1 atm)

  H2(g)           -22.04    -25.14   -3.10  H2
  H2O(g)           -1.50     -0.00    1.50  H2O
  O2(g)           -39.20    -42.09   -2.89  O2

**For a gas, SI = log10(fugacity). Fugacity = pressure * phi / 1 atm.
  For ideal gases, phi = 1.

------------------
End of simulation.
------------------

------------------------------------
Reading input data for simulation 2.
------------------------------------

	USE solution 1
	REACTION_TEMPERATURE
	 5.000000
	REACTION_PRESSURE
	 1.000000
	REACTION
	 NaCl 1
	0 0.068450 0.093400 0.094850 0.100000 0.124260 0.161465 0.166300 0.198490 0.200000 0.257240 0.320000 0.333120 0.356409 0.475759 0.483190 0.500000 0.501200 0.501900 0.507860 0.655630 0.684443 0.724670 0.787500 0.800000 0.841150 0.947100 0.963232 0.994700 0.999200 1.001200 1.200000 1.261000 1.499860 1.501800 1.782400 1.950000 1.965000 2.003400 2.251700 2.473300 2.762500 2.951400 2.983600 3.487100 3.944700 4.447300 4.930300 5.385900 5.951800
	USER_GRAPH
	-headings 5oC
	10 data 0, 14.657906, 14.741411, 14.585688, 15.114606, 14.823821, 14.922183, 14.697092, 14.830463, 15.279405, 15.131269, 15.429920, 15.283700, 15.322325, 15.540895, 15.552742, 15.696611, 15.518762, 15.551367, 15.595391, 15.833944, 15.899870, 15.911696, 15.993571, 16.095803, 16.115112, 16.266771, 16.289291, 16.333898, 16.313042, 16.302879, 16.602808, 16.695204, 16.930814, 16.986947, 17.308670, 17.726759, 17.508545, 17.539335, 17.790072, 17.999293, 18.252674, 18.420887, 18.436035, 18.829280, 19.147293, 19.461856, 19.738854, 19.975462, 20.245315,
	20 dim d(50)
	30 read d(1), d(2), d(3), d(4), d(5), d(6), d(7), d(8), d(9), d(10), d(11), d(12), d(13), d(14), d(15), d(16), d(17), d(18), d(19), d(20), d(21), d(22), d(23), d(24), d(25), d(26), d(27), d(28), d(29), d(30), d(31), d(32), d(33), d(34), d(35), d(36), d(37), d(38), d(39), d(40), d(41), d(42), d(43), d(44), d(45), d(46), d(47), d(48), d(49), d(50),
	40 if step_no = 1 then put(rho, 10)
	50 if step_no > 1 then Vmol = (1e3 + tot("Cl") * 58.4428) / (tot("Cl") * rho) - 1e3 / (tot("Cl") * get(10))
	60 if step_no = 1 then dif = 0 else dif = Vmol - d(step_no)
	62 if step_no = 1 then goto 90
	70 plot_xy tot("Na"), d(step_no), line_w = 0, color = Yellow #aph_x tot("Na") # dif, str$(tc), str$(pressure), str$(step_no + get(1))
	80 plot_xy tot("Na"), Vmol, symbol = None, color = Yellow #step_no = 264 then put(step_no + get(1), 1)
	90 end
	END
-----------------------------------------
Beginning of batch-reaction calculations.
-----------------------------------------

Reaction step 1.

Using solution 1.	
Using temperature 1.	
Using pressure 1.	
Using reaction 1.	

Reaction 1.	

	  0.000e+00 moles of the following reaction have been added:

	                 Relative
	Reactant            moles

	NaCl                 1.00000

	                 Relative
	Element             moles
	Cl                   1.00000
	Na                   1.00000

-----------------------------Solution composition------------------------------

	Elements           Molality       Moles

	Pure water     

----------------------------Description of solution----------------------------

                                       pH  =   7.365      Charge balance
                                       pe  =  -0.484      Adjusted to redox equilibrium
      Specific Conductance (µS/cm,   5°C)  = 0
                          Density (g/cm³)  =   0.99996
                               Volume (L)  =   1.00004
                        Viscosity (mPa s)  =   1.51818
                        Activity of water  =   1.000
                 Ionic strength (mol/kgw)  =   4.318e-08
                       Mass of water (kg)  =   1.000e+00
                 Total alkalinity (eq/kg)  =   3.041e-17
                         Temperature (°C)  =   5.00
                  Electrical balance (eq)  =  -3.041e-17
 Percent error, 100*(Cat-|An|)/(Cat+|An|)  =  -0.00
                               Iterations  =   8
                                  Total H  = 1.110124e+02
                                  Total O  = 5.550622e+01

----------------------------Distribution of species----------------------------

                                               Log       Log       Log    mole V
   Species          Molality    Activity  Molality  Activity     Gamma   cm³/mol

   OH-             4.318e-08   4.317e-08    -7.365    -7.365    -0.000     -5.54
   H+              4.318e-08   4.317e-08    -7.365    -7.365    -0.000      0.00
   H2O             5.551e+01   1.000e+00     1.744    -0.000     0.000     18.02
H(0)          3.040e-17
   H2              1.520e-17   1.520e-17   -16.818   -16.818     0.000     28.63
O(0)          0.000e+00
   O2              0.000e+00   0.000e+00   -65.662   -65.662     0.000     28.29

------------------------------Saturation indices-------------------------------

  Phase               SI** log IAP   log K(278 K,   1 atm)

  H2(g)           -13.78    -16.82   -3.03  H2
  H2O(g)           -2.06     -0.00    2.06  H2O
  O2(g)           -62.95    -65.66   -2.71  O2

**For a gas, SI = log10(fugacity). Fugacity = pressure * phi / 1 atm.
  For ideal gases, phi = 1.

Reaction step 2.

Using solution 1.	
Using temperature 1.	
Using pressure 1.	
Using reaction 1.	

Reaction 1.	

	  6.845e-02 moles of the following reaction have been added:

	                 Relative
	Reactant            moles

	NaCl                 1.00000

	                 Relative
	Element             moles
	Cl                   1.00000
	Na                   1.00000

-----------------------------Solution composition------------------------------

	Elements           Molality       Moles

	Cl                6.845e-02   6.845e-02
	Na                6.845e-02   6.845e-02

----------------------------Description of solution----------------------------

                                       pH  =   7.356      Charge balance
                                       pe  =  -0.513      Adjusted to redox equilibrium
      Specific Conductance (µS/cm,   5°C)  = 4567
                          Density (g/cm³)  =   1.00297
                               Volume (L)  =   1.00103
                        Viscosity (mPa s)  =   1.52638
                        Activity of water  =   0.998
                 Ionic strength (mol/kgw)  =   6.845e-02
                       Mass of water (kg)  =   1.000e+00
                 Total alkalinity (eq/kg)  =   3.391e-17
                         Temperature (°C)  =   5.00
                  Electrical balance (eq)  =  -6.505e-17
 Percent error, 100*(Cat-|An|)/(Cat+|An|)  =  -0.00
                               Iterations  =   8
                                  Total H  = 1.110124e+02
                                  Total O  = 5.550622e+01

----------------------------Distribution of species----------------------------

                                               Log       Log       Log    mole V
   Species          Molality    Activity  Molality  Activity     Gamma   cm³/mol

   OH-             5.306e-08   4.218e-08    -7.275    -7.375    -0.100     -5.26
   H+              5.218e-08   4.408e-08    -7.283    -7.356    -0.073      0.00
   H2O             5.551e+01   9.977e-01     1.744    -0.001     0.000     18.02
Cl            6.845e-02
   Cl-             6.845e-02   5.467e-02    -1.165    -1.262    -0.098     17.15
   HCl             8.790e-10   9.400e-10    -9.056    -9.027     0.029     (0)  
H(0)          3.566e-17
   H2              1.783e-17   1.811e-17   -16.749   -16.742     0.007     28.63
Na            6.845e-02
   Na+             6.845e-02   5.559e-02    -1.165    -1.255    -0.090     -2.60
   NaOH            2.308e-19   2.345e-19   -18.637   -18.630     0.007     (0)  
O(0)          0.000e+00
   O2              0.000e+00   0.000e+00   -65.823   -65.817     0.007     28.29

------------------------------Saturation indices-------------------------------

  Phase               SI** log IAP   log K(278 K,   1 atm)

  H2(g)           -13.71    -16.74   -3.03  H2
  H2O(g)           -2.06     -0.00    2.06  H2O
  Halite           -4.07     -2.52    1.55  NaCl
  O2(g)           -63.10    -65.82   -2.71  O2

**For a gas, SI = log10(fugacity). Fugacity = pressure * phi / 1 atm.
  For ideal gases, phi = 1.

Reaction step 3.

Using solution 1.	
Using temperature 1.	
Using pressure 1.	
Using reaction 1.	

Reaction 1.	

	  9.340e-02 moles of the following reaction have been added:

	                 Relative
	Reactant            moles

	NaCl                 1.00000

	                 Relative
	Element             moles
	Cl                   1.00000
	Na                   1.00000

-----------------------------Solution composition------------------------------

	Elements           Molality       Moles

	Cl                9.340e-02   9.340e-02
	Na                9.340e-02   9.340e-02

----------------------------Description of solution----------------------------

                                       pH  =   7.354      Charge balance
                                       pe  =  -0.521      Adjusted to redox equilibrium
      Specific Conductance (µS/cm,   5°C)  = 6122
                          Density (g/cm³)  =   1.00405
                               Volume (L)  =   1.00140
                        Viscosity (mPa s)  =   1.52899
                        Activity of water  =   0.997
                 Ionic strength (mol/kgw)  =   9.340e-02
                       Mass of water (kg)  =   1.000e+00
                 Total alkalinity (eq/kg)  =   3.432e-17
                         Temperature (°C)  =   5.00
                  Electrical balance (eq)  =  -2.079e-16
 Percent error, 100*(Cat-|An|)/(Cat+|An|)  =  -0.00
                               Iterations  =   8
                                  Total H  = 1.110124e+02
                                  Total O  = 5.550622e+01

----------------------------Distribution of species----------------------------

                                               Log       Log       Log    mole V
   Species          Molality    Activity  Molality  Activity     Gamma   cm³/mol

   OH-             5.433e-08   4.197e-08    -7.265    -7.377    -0.112     -5.20
   H+              5.318e-08   4.427e-08    -7.274    -7.354    -0.080      0.00
   H2O             5.551e+01   9.968e-01     1.744    -0.001     0.000     18.02
Cl            9.340e-02
   Cl-             9.340e-02   7.260e-02    -1.030    -1.139    -0.109     17.19
   HCl             1.144e-09   1.253e-09    -8.942    -8.902     0.040     (0)  
H(0)          3.703e-17
   H2              1.851e-17   1.892e-17   -16.733   -16.723     0.009     28.63
Na            9.340e-02
   Na+             9.340e-02   7.423e-02    -1.030    -1.129    -0.100     -2.53
   NaOH            3.049e-19   3.115e-19   -18.516   -18.506     0.009     (0)  
O(0)          0.000e+00
   O2              0.000e+00   0.000e+00   -65.864   -65.855     0.009     28.29

------------------------------Saturation indices-------------------------------

  Phase               SI** log IAP   log K(278 K,   1 atm)

  H2(g)           -13.69    -16.72   -3.03  H2
  H2O(g)           -2.06     -0.00    2.06  H2O
  Halite           -3.82     -2.27    1.55  NaCl
  O2(g)           -63.14    -65.86   -2.71  O2

**For a gas, SI = log10(fugacity). Fugacity = pressure * phi / 1 atm.
  For ideal gases, phi = 1.

Reaction step 4.

Using solution 1.	
Using temperature 1.	
Using pressure 1.	
Using reaction 1.	

Reaction 1.	

	  9.485e-02 moles of the following reaction have been added:

	                 Relative
	Reactant            moles

	NaCl                 1.00000

	                 Relative
	Element             moles
	Cl                   1.00000
	Na                   1.00000

-----------------------------Solution composition------------------------------

	Elements           Molality       Moles

	Cl                9.485e-02   9.485e-02
	Na                9.485e-02   9.485e-02

----------------------------Description of solution----------------------------

                                       pH  =   7.354      Charge balance
                                       pe  =  -0.580      Adjusted to redox equilibrium
      Specific Conductance (µS/cm,   5°C)  = 6211
                          Density (g/cm³)  =   1.00411
                               Volume (L)  =   1.00143
                        Viscosity (mPa s)  =   1.52914
                        Activity of water  =   0.997
                 Ionic strength (mol/kgw)  =   9.485e-02
                       Mass of water (kg)  =   1.000e+00
                 Total alkalinity (eq/kg)  =   4.425e-17
                         Temperature (°C)  =   5.00
                  Electrical balance (eq)  =  -2.475e-16
 Percent error, 100*(Cat-|An|)/(Cat+|An|)  =  -0.00
                               Iterations  =   8
                                  Total H  = 1.110124e+02
                                  Total O  = 5.550622e+01

----------------------------Distribution of species----------------------------

                                               Log       Log       Log    mole V
   Species          Molality    Activity  Molality  Activity     Gamma   cm³/mol

   OH-             5.439e-08   4.196e-08    -7.264    -7.377    -0.113     -5.20
   H+              5.323e-08   4.428e-08    -7.274    -7.354    -0.080      0.00
   H2O             5.551e+01   9.968e-01     1.744    -0.001     0.000     18.02
Cl            9.485e-02
   Cl-             9.485e-02   7.363e-02    -1.023    -1.133    -0.110     17.19
   HCl             1.159e-09   1.271e-09    -8.936    -8.896     0.040     (0)  
H(0)          4.849e-17
   H2              2.425e-17   2.478e-17   -16.615   -16.606     0.009     28.63
Na            9.485e-02
   Na+             9.485e-02   7.530e-02    -1.023    -1.123    -0.100     -2.53
   NaOH            3.091e-19   3.160e-19   -18.510   -18.500     0.009     (0)  
O(0)          0.000e+00
   O2              0.000e+00   0.000e+00   -66.099   -66.090     0.009     28.29

------------------------------Saturation indices-------------------------------

  Phase               SI** log IAP   log K(278 K,   1 atm)

  H2(g)           -13.57    -16.61   -3.03  H2
  H2O(g)           -2.06     -0.00    2.06  H2O
  Halite           -3.81     -2.26    1.55  NaCl
  O2(g)           -63.37    -66.09   -2.71  O2

**For a gas, SI = log10(fugacity). Fugacity = pressure * phi / 1 atm.
  For ideal gases, phi = 1.

Reaction step 5.

Using solution 1.	
Using temperature 1.	
Using pressure 1.	
Using reaction 1.	

Reaction 1.	

	  1.000e-01 moles of the following reaction have been added:

	                 Relative
	Reactant            moles

	NaCl                 1.00000

	                 Relative
	Element             moles
	Cl                   1.00000
	Na                   1.00000

-----------------------------Solution composition------------------------------

	Elements           Molality       Moles

	Cl                1.000e-01   1.000e-01
	Na                1.000e-01   1.000e-01

----------------------------Description of solution----------------------------

                                       pH  =   7.354      Charge balance
                                       pe  =  -0.531      Adjusted to redox equilibrium
      Specific Conductance (µS/cm,   5°C)  = 6527
                          Density (g/cm³)  =   1.00433
                               Volume (L)  =   1.00150
                        Viscosity (mPa s)  =   1.52967
                        Activity of water  =   0.997
                 Ionic strength (mol/kgw)  =   1.000e-01
                       Mass of water (kg)  =   1.000e+00
                 Total alkalinity (eq/kg)  =   3.831e-17
                         Temperature (°C)  =   5.00
                  Electrical balance (eq)  =  -4.000e-16
 Percent error, 100*(Cat-|An|)/(Cat+|An|)  =  -0.00
                               Iterations  =   8
                                  Total H  = 1.110124e+02
                                  Total O  = 5.550622e+01

----------------------------Distribution of species----------------------------

                                               Log       Log       Log    mole V
   Species          Molality    Activity  Molality  Activity     Gamma   cm³/mol

   OH-             5.462e-08   4.192e-08    -7.263    -7.378    -0.115     -5.18
   H+              5.341e-08   4.431e-08    -7.272    -7.354    -0.081      0.00
   H2O             5.551e+01   9.966e-01     1.744    -0.001     0.000     18.02
Cl            1.000e-01
   Cl-             1.000e-01   7.725e-02    -1.000    -1.112    -0.112     17.20
   HCl             1.210e-09   1.335e-09    -8.917    -8.875     0.043     (0)  
H(0)          3.883e-17
   H2              1.941e-17   1.987e-17   -16.712   -16.702     0.010     28.63
Na            1.000e-01
   Na+             1.000e-01   7.909e-02    -1.000    -1.102    -0.102     -2.52
   NaOH            3.240e-19   3.316e-19   -18.489   -18.479     0.010     (0)  
O(0)          0.000e+00
   O2              0.000e+00   0.000e+00   -65.908   -65.898     0.010     28.29

------------------------------Saturation indices-------------------------------

  Phase               SI** log IAP   log K(278 K,   1 atm)

  H2(g)           -13.67    -16.70   -3.03  H2
  H2O(g)           -2.06     -0.00    2.06  H2O
  Halite           -3.77     -2.21    1.55  NaCl
  O2(g)           -63.18    -65.90   -2.71  O2

**For a gas, SI = log10(fugacity). Fugacity = pressure * phi / 1 atm.
  For ideal gases, phi = 1.

Reaction step 6.

Using solution 1.	
Using temperature 1.	
Using pressure 1.	
Using reaction 1.	

Reaction 1.	

	  1.243e-01 moles of the following reaction have been added:

	                 Relative
	Reactant            moles

	NaCl                 1.00000

	                 Relative
	Element             moles
	Cl                   1.00000
	Na                   1.00000

-----------------------------Solution composition------------------------------

	Elements           Molality       Moles

	Cl                1.243e-01   1.243e-01
	Na                1.243e-01   1.243e-01

----------------------------Description of solution----------------------------

                                       pH  =   7.352      Charge balance
                                       pe  =  -0.450      Adjusted to redox equilibrium
      Specific Conductance (µS/cm,   5°C)  = 7998
                          Density (g/cm³)  =   1.00538
                               Volume (L)  =   1.00187
                        Viscosity (mPa s)  =   1.53219
                        Activity of water  =   0.996
                 Ionic strength (mol/kgw)  =   1.243e-01
                       Mass of water (kg)  =   1.000e+00
                 Total alkalinity (eq/kg)  =   2.518e-17
                         Temperature (°C)  =   5.00
                  Electrical balance (eq)  =  -1.028e-15
 Percent error, 100*(Cat-|An|)/(Cat+|An|)  =  -0.00
                               Iterations  =   8
                                  Total H  = 1.110124e+02
                                  Total O  = 5.550622e+01

----------------------------Distribution of species----------------------------

                                               Log       Log       Log    mole V
   Species          Molality    Activity  Molality  Activity     Gamma   cm³/mol

   OH-             5.559e-08   4.176e-08    -7.255    -7.379    -0.124     -5.13
   H+              5.415e-08   4.445e-08    -7.266    -7.352    -0.086      0.00
   H2O             5.551e+01   9.958e-01     1.744    -0.002     0.000     18.02
Cl            1.243e-01
   Cl-             1.243e-01   9.407e-02    -0.906    -1.027    -0.121     17.23
   HCl             1.444e-09   1.631e-09    -8.840    -8.788     0.053     (0)  
H(0)          2.679e-17
   H2              1.339e-17   1.378e-17   -16.873   -16.861     0.012     28.63
Na            1.243e-01
   Na+             1.243e-01   9.679e-02    -0.906    -1.014    -0.108     -2.46
   NaOH            3.928e-19   4.042e-19   -18.406   -18.393     0.012     (0)  
O(0)          0.000e+00
   O2              0.000e+00   0.000e+00   -65.593   -65.581     0.012     28.29

------------------------------Saturation indices-------------------------------

  Phase               SI** log IAP   log K(278 K,   1 atm)

  H2(g)           -13.83    -16.86   -3.03  H2
  H2O(g)           -2.06     -0.00    2.06  H2O
  Halite           -3.59     -2.04    1.55  NaCl
  O2(g)           -62.87    -65.58   -2.71  O2

**For a gas, SI = log10(fugacity). Fugacity = pressure * phi / 1 atm.
  For ideal gases, phi = 1.

Reaction step 7.

Using solution 1.	
Using temperature 1.	
Using pressure 1.	
Using reaction 1.	

Reaction 1.	

	  1.615e-01 moles of the following reaction have been added:

	                 Relative
	Reactant            moles

	NaCl                 1.00000

	                 Relative
	Element             moles
	Cl                   1.00000
	Na                   1.00000

-----------------------------Solution composition------------------------------

	Elements           Molality       Moles

	Cl                1.615e-01   1.615e-01
	Na                1.615e-01   1.615e-01

----------------------------Description of solution----------------------------

                                       pH  =   7.350      Charge balance
                                       pe  =  -0.506      Adjusted to redox equilibrium
      Specific Conductance (µS/cm,   5°C)  = 10202
                          Density (g/cm³)  =   1.00698
                               Volume (L)  =   1.00244
                        Viscosity (mPa s)  =   1.53604
                        Activity of water  =   0.995
                 Ionic strength (mol/kgw)  =   1.615e-01
                       Mass of water (kg)  =   1.000e+00
                 Total alkalinity (eq/kg)  =   2.870e-17
                         Temperature (°C)  =   5.00
                  Electrical balance (eq)  =  -3.972e-16
 Percent error, 100*(Cat-|An|)/(Cat+|An|)  =  -0.00
                               Iterations  =   8
                                  Total H  = 1.110124e+02
                                  Total O  = 5.550622e+01

----------------------------Distribution of species----------------------------

                                               Log       Log       Log    mole V
   Species          Molality    Activity  Molality  Activity     Gamma   cm³/mol

   OH-             5.684e-08   4.153e-08    -7.245    -7.382    -0.136     -5.05
   H+              5.507e-08   4.463e-08    -7.259    -7.350    -0.091      0.00
   H2O             5.551e+01   9.945e-01     1.744    -0.002     0.000     18.02
Cl            1.615e-01
   Cl-             1.615e-01   1.192e-01    -0.792    -0.924    -0.132     17.27
   HCl             1.771e-09   2.074e-09    -8.752    -8.683     0.069     (0)  
H(0)          3.459e-17
   H2              1.729e-17   1.795e-17   -16.762   -16.746     0.016     28.63
Na            1.615e-01
   Na+             1.615e-01   1.235e-01    -0.792    -0.908    -0.116     -2.39
   NaOH            4.944e-19   5.131e-19   -18.306   -18.290     0.016     (0)  
O(0)          0.000e+00
   O2              0.000e+00   0.000e+00   -65.828   -65.811     0.016     28.29

------------------------------Saturation indices-------------------------------

  Phase               SI** log IAP   log K(278 K,   1 atm)

  H2(g)           -13.71    -16.75   -3.03  H2
  H2O(g)           -2.06     -0.00    2.06  H2O
  Halite           -3.38     -1.83    1.55  NaCl
  O2(g)           -63.10    -65.81   -2.71  O2

**For a gas, SI = log10(fugacity). Fugacity = pressure * phi / 1 atm.
  For ideal gases, phi = 1.

Reaction step 8.

Using solution 1.	
Using temperature 1.	
Using pressure 1.	
Using reaction 1.	

Reaction 1.	

	  1.663e-01 moles of the following reaction have been added:

	                 Relative
	Reactant            moles

	NaCl                 1.00000

	                 Relative
	Element             moles
	Cl                   1.00000
	Na                   1.00000

-----------------------------Solution composition------------------------------

	Elements           Molality       Moles

	Cl                1.663e-01   1.663e-01
	Na                1.663e-01   1.663e-01

----------------------------Description of solution----------------------------

                                       pH  =   7.350      Charge balance
                                       pe  =  -0.572      Adjusted to redox equilibrium
      Specific Conductance (µS/cm,   5°C)  = 10485
                          Density (g/cm³)  =   1.00719
                               Volume (L)  =   1.00251
                        Viscosity (mPa s)  =   1.53654
                        Activity of water  =   0.994
                 Ionic strength (mol/kgw)  =   1.663e-01
                       Mass of water (kg)  =   1.000e+00
                 Total alkalinity (eq/kg)  =   4.232e-17
                         Temperature (°C)  =   5.00
                  Electrical balance (eq)  =  -7.600e-15
 Percent error, 100*(Cat-|An|)/(Cat+|An|)  =  -0.00
                               Iterations  =   8
                                  Total H  = 1.110124e+02
                                  Total O  = 5.550622e+01

----------------------------Distribution of species----------------------------

                                               Log       Log       Log    mole V
   Species          Molality    Activity  Molality  Activity     Gamma   cm³/mol

   OH-             5.698e-08   4.151e-08    -7.244    -7.382    -0.138     -5.04
   H+              5.517e-08   4.465e-08    -7.258    -7.350    -0.092      0.00
   H2O             5.551e+01   9.943e-01     1.744    -0.002     0.000     18.02
Cl            1.663e-01
   Cl-             1.663e-01   1.224e-01    -0.779    -0.912    -0.133     17.27
   HCl             1.811e-09   2.131e-09    -8.742    -8.671     0.071     (0)  
H(0)          4.688e-17
   H2              2.344e-17   2.436e-17   -16.630   -16.613     0.017     28.63
Na            1.663e-01
   Na+             1.663e-01   1.270e-01    -0.779    -0.896    -0.117     -2.38
   NaOH            5.073e-19   5.271e-19   -18.295   -18.278     0.017     (0)  
O(0)          0.000e+00
   O2              0.000e+00   0.000e+00   -66.093   -66.077     0.017     28.29

------------------------------Saturation indices-------------------------------

  Phase               SI** log IAP   log K(278 K,   1 atm)

  H2(g)           -13.58    -16.61   -3.03  H2
  H2O(g)           -2.06     -0.00    2.06  H2O
  Halite           -3.36     -1.81    1.55  NaCl
  O2(g)           -63.36    -66.08   -2.71  O2

**For a gas, SI = log10(fugacity). Fugacity = pressure * phi / 1 atm.
  For ideal gases, phi = 1.

Reaction step 9.

Using solution 1.	
Using temperature 1.	
Using pressure 1.	
Using reaction 1.	

Reaction 1.	

	  1.985e-01 moles of the following reaction have been added:

	                 Relative
	Reactant            moles

	NaCl                 1.00000

	                 Relative
	Element             moles
	Cl                   1.00000
	Na                   1.00000

-----------------------------Solution composition------------------------------

	Elements           Molality       Moles

	Cl                1.985e-01   1.985e-01
	Na                1.985e-01   1.985e-01

----------------------------Description of solution----------------------------

                                       pH  =   7.349      Charge balance
                                       pe  =  -0.606      Adjusted to redox equilibrium
      Specific Conductance (µS/cm,   5°C)  = 12344
                          Density (g/cm³)  =   1.00856
                               Volume (L)  =   1.00301
                        Viscosity (mPa s)  =   1.53988
                        Activity of water  =   0.993
                 Ionic strength (mol/kgw)  =   1.985e-01
                       Mass of water (kg)  =   1.000e+00
                 Total alkalinity (eq/kg)  =   5.035e-17
                         Temperature (°C)  =   5.00
                  Electrical balance (eq)  =  -4.888e-17
 Percent error, 100*(Cat-|An|)/(Cat+|An|)  =  -0.00
                               Iterations  =   9
                                  Total H  = 1.110124e+02
                                  Total O  = 5.550622e+01

----------------------------Distribution of species----------------------------

                                               Log       Log       Log    mole V
   Species          Molality    Activity  Molality  Activity     Gamma   cm³/mol

   OH-             5.787e-08   4.134e-08    -7.238    -7.384    -0.146     -4.98
   H+              5.580e-08   4.478e-08    -7.253    -7.349    -0.096      0.00
   H2O             5.551e+01   9.933e-01     1.744    -0.003     0.000     18.02
Cl            1.985e-01
   Cl-             1.985e-01   1.435e-01    -0.702    -0.843    -0.141     17.30
   HCl             2.063e-09   2.506e-09    -8.685    -8.601     0.084     (0)  
H(0)          5.460e-17
   H2              2.730e-17   2.858e-17   -16.564   -16.544     0.020     28.63
Na            1.985e-01
   Na+             1.985e-01   1.498e-01    -0.702    -0.824    -0.122     -2.32
   NaOH            5.918e-19   6.195e-19   -18.228   -18.208     0.020     (0)  
O(0)          0.000e+00
   O2              0.000e+00   0.000e+00   -66.236   -66.217     0.020     28.29

------------------------------Saturation indices-------------------------------

  Phase               SI** log IAP   log K(278 K,   1 atm)

  H2(g)           -13.51    -16.54   -3.03  H2
  H2O(g)           -2.06     -0.00    2.06  H2O
  Halite           -3.22     -1.67    1.55  NaCl
  O2(g)           -63.50    -66.22   -2.71  O2

**For a gas, SI = log10(fugacity). Fugacity = pressure * phi / 1 atm.
  For ideal gases, phi = 1.

Reaction step 10.

Using solution 1.	
Using temperature 1.	
Using pressure 1.	
Using reaction 1.	

Reaction 1.	

	  2.000e-01 moles of the following reaction have been added:

	                 Relative
	Reactant            moles

	NaCl                 1.00000

	                 Relative
	Element             moles
	Cl                   1.00000
	Na                   1.00000

-----------------------------Solution composition------------------------------

	Elements           Molality       Moles

	Cl                2.000e-01   2.000e-01
	Na                2.000e-01   2.000e-01

----------------------------Description of solution----------------------------

                                       pH  =   7.349      Charge balance
                                       pe  =  -0.616      Adjusted to redox equilibrium
      Specific Conductance (µS/cm,   5°C)  = 12430
                          Density (g/cm³)  =   1.00863
                               Volume (L)  =   1.00303
                        Viscosity (mPa s)  =   1.54004
                        Activity of water  =   0.993
                 Ionic strength (mol/kgw)  =   2.000e-01
                       Mass of water (kg)  =   1.000e+00
                 Total alkalinity (eq/kg)  =   4.920e-17
                         Temperature (°C)  =   5.00
                  Electrical balance (eq)  =  -5.887e-15
 Percent error, 100*(Cat-|An|)/(Cat+|An|)  =  -0.00
                               Iterations  =  13
                                  Total H  = 1.110124e+02
                                  Total O  = 5.550622e+01

----------------------------Distribution of species----------------------------

                                               Log       Log       Log    mole V
   Species          Molality    Activity  Molality  Activity     Gamma   cm³/mol

   OH-             5.791e-08   4.133e-08    -7.237    -7.384    -0.146     -4.97
   H+              5.583e-08   4.479e-08    -7.253    -7.349    -0.096      0.00
   H2O             5.551e+01   9.932e-01     1.744    -0.003     0.000     18.02
Cl            2.000e-01
   Cl-             2.000e-01   1.445e-01    -0.699    -0.840    -0.141     17.31
   HCl             2.075e-09   2.524e-09    -8.683    -8.598     0.085     (0)  
H(0)          5.739e-17
   H2              2.870e-17   3.005e-17   -16.542   -16.522     0.020     28.63
Na            2.000e-01
   Na+             2.000e-01   1.509e-01    -0.699    -0.821    -0.122     -2.32
   NaOH            5.957e-19   6.238e-19   -18.225   -18.205     0.020     (0)  
O(0)          0.000e+00
   O2              0.000e+00   0.000e+00   -66.280   -66.260     0.020     28.29

------------------------------Saturation indices-------------------------------

  Phase               SI** log IAP   log K(278 K,   1 atm)

  H2(g)           -13.49    -16.52   -3.03  H2
  H2O(g)           -2.06     -0.00    2.06  H2O
  Halite           -3.21     -1.66    1.55  NaCl
  O2(g)           -63.55    -66.26   -2.71  O2

**For a gas, SI = log10(fugacity). Fugacity = pressure * phi / 1 atm.
  For ideal gases, phi = 1.

Reaction step 11.

Using solution 1.	
Using temperature 1.	
Using pressure 1.	
Using reaction 1.	

Reaction 1.	

	  2.572e-01 moles of the following reaction have been added:

	                 Relative
	Reactant            moles

	NaCl                 1.00000

	                 Relative
	Element             moles
	Cl                   1.00000
	Na                   1.00000

-----------------------------Solution composition------------------------------

	Elements           Molality       Moles

	Cl                2.572e-01   2.572e-01
	Na                2.572e-01   2.572e-01

----------------------------Description of solution----------------------------

                                       pH  =   7.347      Charge balance
                                       pe  =  -0.546      Adjusted to redox equilibrium
      Specific Conductance (µS/cm,   5°C)  = 15648
                          Density (g/cm³)  =   1.01106
                               Volume (L)  =   1.00393
                        Viscosity (mPa s)  =   1.54604
                        Activity of water  =   0.991
                 Ionic strength (mol/kgw)  =   2.572e-01
                       Mass of water (kg)  =   1.000e+00
                 Total alkalinity (eq/kg)  =  -2.054e-18
                         Temperature (°C)  =   5.00
                  Electrical balance (eq)  =  -1.220e-13
 Percent error, 100*(Cat-|An|)/(Cat+|An|)  =  -0.00
                               Iterations  =   8
                                  Total H  = 1.110124e+02
                                  Total O  = 5.550622e+01

----------------------------Distribution of species----------------------------

                                               Log       Log       Log    mole V
   Species          Molality    Activity  Molality  Activity     Gamma   cm³/mol

   OH-             5.922e-08   4.107e-08    -7.228    -7.386    -0.159     -4.86
   H+              5.675e-08   4.498e-08    -7.246    -7.347    -0.101      0.00
   H2O             5.551e+01   9.913e-01     1.744    -0.004     0.000     18.02
Cl            2.572e-01
   Cl-             2.572e-01   1.811e-01    -0.590    -0.742    -0.152     17.36
   HCl             2.470e-09   3.178e-09    -8.607    -8.498     0.109     (0)  
H(0)          4.136e-17
   H2              2.068e-17   2.194e-17   -16.684   -16.659     0.026     28.63
Na            2.572e-01
   Na+             2.572e-01   1.913e-01    -0.590    -0.718    -0.129     -2.23
   NaOH            7.404e-19   7.855e-19   -18.131   -18.105     0.026     (0)  
O(0)          0.000e+00
   O2              0.000e+00   0.000e+00   -66.014   -65.989     0.026     28.29

------------------------------Saturation indices-------------------------------

  Phase               SI** log IAP   log K(278 K,   1 atm)

  H2(g)           -13.62    -16.66   -3.03  H2
  H2O(g)           -2.06     -0.00    2.06  H2O
  Halite           -3.01     -1.46    1.55  NaCl
  O2(g)           -63.27    -65.99   -2.71  O2

**For a gas, SI = log10(fugacity). Fugacity = pressure * phi / 1 atm.
  For ideal gases, phi = 1.

Reaction step 12.

Using solution 1.	
Using temperature 1.	
Using pressure 1.	
Using reaction 1.	

Reaction 1.	

	  3.200e-01 moles of the following reaction have been added:

	                 Relative
	Reactant            moles

	NaCl                 1.00000

	                 Relative
	Element             moles
	Cl                   1.00000
	Na                   1.00000

-----------------------------Solution composition------------------------------

	Elements           Molality       Moles

	Cl                3.200e-01   3.200e-01
	Na                3.200e-01   3.200e-01

----------------------------Description of solution----------------------------

                                       pH  =   7.345      Charge balance
                                       pe  =  -0.642      Adjusted to redox equilibrium
      Specific Conductance (µS/cm,   5°C)  = 19069
                          Density (g/cm³)  =   1.01371
                               Volume (L)  =   1.00492
                        Viscosity (mPa s)  =   1.55272
                        Activity of water  =   0.989
                 Ionic strength (mol/kgw)  =   3.200e-01
                       Mass of water (kg)  =   1.000e+00
                 Total alkalinity (eq/kg)  =   6.181e-17
                         Temperature (°C)  =   5.00
                  Electrical balance (eq)  =  -1.566e-16
 Percent error, 100*(Cat-|An|)/(Cat+|An|)  =  -0.00
                               Iterations  =   9
                                  Total H  = 1.110124e+02
                                  Total O  = 5.550622e+01

----------------------------Distribution of species----------------------------

                                               Log       Log       Log    mole V
   Species          Molality    Activity  Molality  Activity     Gamma   cm³/mol

   OH-             6.038e-08   4.082e-08    -7.219    -7.389    -0.170     -4.75
   H+              5.755e-08   4.516e-08    -7.240    -7.345    -0.105      0.00
   H2O             5.551e+01   9.891e-01     1.744    -0.005     0.000     18.02
Cl            3.200e-01
   Cl-             3.200e-01   2.203e-01    -0.495    -0.657    -0.162     17.41
   HCl             2.836e-09   3.880e-09    -8.547    -8.411     0.136     (0)  
H(0)          6.385e-17
   H2              3.193e-17   3.437e-17   -16.496   -16.464     0.032     28.63
Na            3.200e-01
   Na+             3.200e-01   2.354e-01    -0.495    -0.628    -0.133     -2.14
   NaOH            8.925e-19   9.607e-19   -18.049   -18.017     0.032     (0)  
O(0)          0.000e+00
   O2              0.000e+00   0.000e+00   -66.412   -66.380     0.032     28.29

------------------------------Saturation indices-------------------------------

  Phase               SI** log IAP   log K(278 K,   1 atm)

  H2(g)           -13.43    -16.46   -3.03  H2
  H2O(g)           -2.06     -0.00    2.06  H2O
  Halite           -2.84     -1.29    1.55  NaCl
  O2(g)           -63.67    -66.38   -2.71  O2

**For a gas, SI = log10(fugacity). Fugacity = pressure * phi / 1 atm.
  For ideal gases, phi = 1.

Reaction step 13.

Using solution 1.	
Using temperature 1.	
Using pressure 1.	
Using reaction 1.	

Reaction 1.	

	  3.331e-01 moles of the following reaction have been added:

	                 Relative
	Reactant            moles

	NaCl                 1.00000

	                 Relative
	Element             moles
	Cl                   1.00000
	Na                   1.00000

-----------------------------Solution composition------------------------------

	Elements           Molality       Moles

	Cl                3.331e-01   3.331e-01
	Na                3.331e-01   3.331e-01

----------------------------Description of solution----------------------------

                                       pH  =   7.345      Charge balance
                                       pe  =  -0.579      Adjusted to redox equilibrium
      Specific Conductance (µS/cm,   5°C)  = 19772
                          Density (g/cm³)  =   1.01426
                               Volume (L)  =   1.00513
                        Viscosity (mPa s)  =   1.55413
                        Activity of water  =   0.989
                 Ionic strength (mol/kgw)  =   3.331e-01
                       Mass of water (kg)  =   1.000e+00
                 Total alkalinity (eq/kg)  =   4.450e-17
                         Temperature (°C)  =   5.00
                  Electrical balance (eq)  =  -3.207e-14
 Percent error, 100*(Cat-|An|)/(Cat+|An|)  =  -0.00
                               Iterations  =  11
                                  Total H  = 1.110124e+02
                                  Total O  = 5.550622e+01

----------------------------Distribution of species----------------------------

                                               Log       Log       Log    mole V
   Species          Molality    Activity  Molality  Activity     Gamma   cm³/mol

   OH-             6.060e-08   4.077e-08    -7.218    -7.390    -0.172     -4.73
   H+              5.770e-08   4.520e-08    -7.239    -7.345    -0.106      0.00
   H2O             5.551e+01   9.887e-01     1.744    -0.005     0.000     18.02
Cl            3.331e-01
   Cl-             3.331e-01   2.284e-01    -0.477    -0.641    -0.164     17.42
   HCl             2.905e-09   4.026e-09    -8.537    -8.395     0.142     (0)  
H(0)          4.775e-17
   H2              2.388e-17   2.578e-17   -16.622   -16.589     0.033     28.63
Na            3.331e-01
   Na+             3.331e-01   2.446e-01    -0.477    -0.612    -0.134     -2.12
   NaOH            9.235e-19   9.972e-19   -18.035   -18.001     0.033     (0)  
O(0)          0.000e+00
   O2              0.000e+00   0.000e+00   -66.164   -66.131     0.033     28.29

------------------------------Saturation indices-------------------------------

  Phase               SI** log IAP   log K(278 K,   1 atm)

  H2(g)           -13.55    -16.59   -3.03  H2
  H2O(g)           -2.06     -0.00    2.06  H2O
  Halite           -2.81     -1.25    1.55  NaCl
  O2(g)           -63.42    -66.13   -2.71  O2

**For a gas, SI = log10(fugacity). Fugacity = pressure * phi / 1 atm.
  For ideal gases, phi = 1.

Reaction step 14.

Using solution 1.	
Using temperature 1.	
Using pressure 1.	
Using reaction 1.	

Reaction 1.	

	  3.564e-01 moles of the following reaction have been added:

	                 Relative
	Reactant            moles

	NaCl                 1.00000

	                 Relative
	Element             moles
	Cl                   1.00000
	Na                   1.00000

-----------------------------Solution composition------------------------------

	Elements           Molality       Moles

	Cl                3.564e-01   3.564e-01
	Na                3.564e-01   3.564e-01

----------------------------Description of solution----------------------------

                                       pH  =   7.344      Charge balance
                                       pe  =  -0.471      Adjusted to redox equilibrium
      Specific Conductance (µS/cm,   5°C)  = 21008
                          Density (g/cm³)  =   1.01524
                               Volume (L)  =   1.00550
                        Viscosity (mPa s)  =   1.55665
                        Activity of water  =   0.988
                 Ionic strength (mol/kgw)  =   3.564e-01
                       Mass of water (kg)  =   1.000e+00
                 Total alkalinity (eq/kg)  =   1.826e-17
                         Temperature (°C)  =   5.00
                  Electrical balance (eq)  =  -6.913e-10
 Percent error, 100*(Cat-|An|)/(Cat+|An|)  =  -0.00
                               Iterations  =  10
                                  Total H  = 1.110124e+02
                                  Total O  = 5.550622e+01

----------------------------Distribution of species----------------------------

                                               Log       Log       Log    mole V
   Species          Molality    Activity  Molality  Activity     Gamma   cm³/mol

   OH-             6.097e-08   4.069e-08    -7.215    -7.391    -0.176     -4.68
   H+              5.795e-08   4.526e-08    -7.237    -7.344    -0.107      0.00
   H2O             5.551e+01   9.879e-01     1.744    -0.005     0.000     18.02
Cl            3.564e-01
   Cl-             3.564e-01   2.426e-01    -0.448    -0.615    -0.167     17.43
   HCl             3.020e-09   4.283e-09    -8.520    -8.368     0.152     (0)  
H(0)          2.897e-17
   H2              1.449e-17   1.572e-17   -16.839   -16.803     0.036     28.63
Na            3.564e-01
   Na+             3.564e-01   2.610e-01    -0.448    -0.583    -0.135     -2.09
   NaOH            9.781e-19   1.062e-18   -18.010   -17.974     0.036     (0)  
O(0)          0.000e+00
   O2              0.000e+00   0.000e+00   -65.738   -65.702     0.036     28.29

------------------------------Saturation indices-------------------------------

  Phase               SI** log IAP   log K(278 K,   1 atm)

  H2(g)           -13.77    -16.80   -3.03  H2
  H2O(g)           -2.06     -0.01    2.06  H2O
  Halite           -2.75     -1.20    1.55  NaCl
  O2(g)           -62.99    -65.70   -2.71  O2

**For a gas, SI = log10(fugacity). Fugacity = pressure * phi / 1 atm.
  For ideal gases, phi = 1.

Reaction step 15.

Using solution 1.	
Using temperature 1.	
Using pressure 1.	
Using reaction 1.	

Reaction 1.	

	  4.758e-01 moles of the following reaction have been added:

	                 Relative
	Reactant            moles

	NaCl                 1.00000

	                 Relative
	Element             moles
	Cl                   1.00000
	Na                   1.00000

-----------------------------Solution composition------------------------------

	Elements           Molality       Moles

	Cl                4.758e-01   4.758e-01
	Na                4.758e-01   4.758e-01

----------------------------Description of solution----------------------------

                                       pH  =   7.342      Charge balance
                                       pe  =  -0.513      Adjusted to redox equilibrium
      Specific Conductance (µS/cm,   5°C)  = 27150
                          Density (g/cm³)  =   1.02022
                               Volume (L)  =   1.00744
                        Viscosity (mPa s)  =   1.56986
                        Activity of water  =   0.984
                 Ionic strength (mol/kgw)  =   4.758e-01
                       Mass of water (kg)  =   1.000e+00
                 Total alkalinity (eq/kg)  =   2.461e-17
                         Temperature (°C)  =   5.00
                  Electrical balance (eq)  =  -2.353e-12
 Percent error, 100*(Cat-|An|)/(Cat+|An|)  =  -0.00
                               Iterations  =  15
                                  Total H  = 1.110124e+02
                                  Total O  = 5.550622e+01

----------------------------Distribution of species----------------------------

                                               Log       Log       Log    mole V
   Species          Molality    Activity  Molality  Activity     Gamma   cm³/mol

   OH-             6.253e-08   4.029e-08    -7.204    -7.395    -0.191     -4.48
   H+              5.903e-08   4.552e-08    -7.229    -7.342    -0.113      0.00
   H2O             5.551e+01   9.838e-01     1.744    -0.007     0.000     18.02
Cl            4.758e-01
   Cl-             4.758e-01   3.145e-01    -0.323    -0.502    -0.180     17.52
   HCl             3.503e-09   5.583e-09    -8.456    -8.253     0.202     (0)  
H(0)          3.448e-17
   H2              1.724e-17   1.923e-17   -16.764   -16.716     0.048     28.63
Na            4.758e-01
   Na+             4.758e-01   3.455e-01    -0.323    -0.462    -0.139     -1.96
   NaOH            1.247e-18   1.392e-18   -17.904   -17.856     0.048     (0)  
O(0)          0.000e+00
   O2              0.000e+00   0.000e+00   -65.928   -65.881     0.048     28.29

------------------------------Saturation indices-------------------------------

  Phase               SI** log IAP   log K(278 K,   1 atm)

  H2(g)           -13.68    -16.72   -3.03  H2
  H2O(g)           -2.06     -0.01    2.06  H2O
  Halite           -2.52     -0.96    1.55  NaCl
  O2(g)           -63.17    -65.88   -2.71  O2

**For a gas, SI = log10(fugacity). Fugacity = pressure * phi / 1 atm.
  For ideal gases, phi = 1.

Reaction step 16.

Using solution 1.	
Using temperature 1.	
Using pressure 1.	
Using reaction 1.	

Reaction 1.	

	  4.832e-01 moles of the following reaction have been added:

	                 Relative
	Reactant            moles

	NaCl                 1.00000

	                 Relative
	Element             moles
	Cl                   1.00000
	Na                   1.00000

-----------------------------Solution composition------------------------------

	Elements           Molality       Moles

	Cl                4.832e-01   4.832e-01
	Na                4.832e-01   4.832e-01

----------------------------Description of solution----------------------------

                                       pH  =   7.342      Charge balance
                                       pe  =  -0.637      Adjusted to redox equilibrium
      Specific Conductance (µS/cm,   5°C)  = 27523
                          Density (g/cm³)  =   1.02052
                               Volume (L)  =   1.00756
                        Viscosity (mPa s)  =   1.57070
                        Activity of water  =   0.984
                 Ionic strength (mol/kgw)  =   4.832e-01
                       Mass of water (kg)  =   1.000e+00
                 Total alkalinity (eq/kg)  =   5.681e-17
                         Temperature (°C)  =   5.00
                  Electrical balance (eq)  =  -3.238e-14
 Percent error, 100*(Cat-|An|)/(Cat+|An|)  =  -0.00
                               Iterations  =  16
                                  Total H  = 1.110124e+02
                                  Total O  = 5.550622e+01

----------------------------Distribution of species----------------------------

                                               Log       Log       Log    mole V
   Species          Molality    Activity  Molality  Activity     Gamma   cm³/mol

   OH-             6.261e-08   4.026e-08    -7.203    -7.395    -0.192     -4.47
   H+              5.909e-08   4.553e-08    -7.229    -7.342    -0.113      0.00
   H2O             5.551e+01   9.836e-01     1.744    -0.007     0.000     18.02
Cl            4.832e-01
   Cl-             4.832e-01   3.189e-01    -0.316    -0.496    -0.180     17.52
   HCl             3.527e-09   5.663e-09    -8.453    -8.247     0.206     (0)  
H(0)          6.109e-17
   H2              3.055e-17   3.414e-17   -16.515   -16.467     0.048     28.63
Na            4.832e-01
   Na+             4.832e-01   3.508e-01    -0.316    -0.455    -0.139     -1.95
   NaOH            1.264e-18   1.412e-18   -17.898   -17.850     0.048     (0)  
O(0)          0.000e+00
   O2              0.000e+00   0.000e+00   -66.428   -66.380     0.048     28.29

------------------------------Saturation indices-------------------------------

  Phase               SI** log IAP   log K(278 K,   1 atm)

  H2(g)           -13.43    -16.47   -3.03  H2
  H2O(g)           -2.06     -0.01    2.06  H2O
  Halite           -2.50     -0.95    1.55  NaCl
  O2(g)           -63.66    -66.38   -2.71  O2

**For a gas, SI = log10(fugacity). Fugacity = pressure * phi / 1 atm.
  For ideal gases, phi = 1.

Reaction step 17.

Using solution 1.	
Using temperature 1.	
Using pressure 1.	
Using reaction 1.	

Reaction 1.	

	  5.000e-01 moles of the following reaction have been added:

	                 Relative
	Reactant            moles

	NaCl                 1.00000

	                 Relative
	Element             moles
	Cl                   1.00000
	Na                   1.00000

-----------------------------Solution composition------------------------------

	Elements           Molality       Moles

	Cl                5.000e-01   5.000e-01
	Na                5.000e-01   5.000e-01

----------------------------Description of solution----------------------------

                                       pH  =   7.341      Charge balance
                                       pe  =  -0.258      Adjusted to redox equilibrium
      Specific Conductance (µS/cm,   5°C)  = 28362
                          Density (g/cm³)  =   1.02122
                               Volume (L)  =   1.00784
                        Viscosity (mPa s)  =   1.57261
                        Activity of water  =   0.983
                 Ionic strength (mol/kgw)  =   5.000e-01
                       Mass of water (kg)  =   1.000e+00
                 Total alkalinity (eq/kg)  =  -7.039e-18
                         Temperature (°C)  =   5.00
                  Electrical balance (eq)  =  -2.540e-12
 Percent error, 100*(Cat-|An|)/(Cat+|An|)  =  -0.00
                               Iterations  =   9
                                  Total H  = 1.110124e+02
                                  Total O  = 5.550622e+01

----------------------------Distribution of species----------------------------

                                               Log       Log       Log    mole V
   Species          Molality    Activity  Molality  Activity     Gamma   cm³/mol

   OH-             6.280e-08   4.021e-08    -7.202    -7.396    -0.194     -4.44
   H+              5.922e-08   4.556e-08    -7.228    -7.341    -0.114      0.00
   H2O             5.551e+01   9.830e-01     1.744    -0.007     0.000     18.02
Cl            5.000e-01
   Cl-             5.000e-01   3.289e-01    -0.301    -0.483    -0.182     17.53
   HCl             3.581e-09   5.845e-09    -8.446    -8.233     0.213     (0)  
H(0)          1.066e-17
   H2              5.330e-18   5.981e-18   -17.273   -17.223     0.050     28.63
Na            5.000e-01
   Na+             5.000e-01   3.628e-01    -0.301    -0.440    -0.139     -1.93
   NaOH            1.300e-18   1.459e-18   -17.886   -17.836     0.050     (0)  
O(0)          0.000e+00
   O2              0.000e+00   0.000e+00   -64.917   -64.867     0.050     28.29

------------------------------Saturation indices-------------------------------

  Phase               SI** log IAP   log K(278 K,   1 atm)

  H2(g)           -14.19    -17.22   -3.03  H2
  H2O(g)           -2.06     -0.01    2.06  H2O
  Halite           -2.48     -0.92    1.55  NaCl
  O2(g)           -62.15    -64.87   -2.71  O2

**For a gas, SI = log10(fugacity). Fugacity = pressure * phi / 1 atm.
  For ideal gases, phi = 1.

Reaction step 18.

Using solution 1.	
Using temperature 1.	
Using pressure 1.	
Using reaction 1.	

Reaction 1.	

	  5.012e-01 moles of the following reaction have been added:

	                 Relative
	Reactant            moles

	NaCl                 1.00000

	                 Relative
	Element             moles
	Cl                   1.00000
	Na                   1.00000

-----------------------------Solution composition------------------------------

	Elements           Molality       Moles

	Cl                5.012e-01   5.012e-01
	Na                5.012e-01   5.012e-01

----------------------------Description of solution----------------------------

                                       pH  =   7.341      Charge balance
                                       pe  =  -0.920      Adjusted to redox equilibrium
      Specific Conductance (µS/cm,   5°C)  = 28421
                          Density (g/cm³)  =   1.02127
                               Volume (L)  =   1.00786
                        Viscosity (mPa s)  =   1.57275
                        Activity of water  =   0.983
                 Ionic strength (mol/kgw)  =   5.012e-01
                       Mass of water (kg)  =   1.000e+00
                 Total alkalinity (eq/kg)  =  -4.575e-18
                         Temperature (°C)  =   5.00
                  Electrical balance (eq)  =  -1.860e-12
 Percent error, 100*(Cat-|An|)/(Cat+|An|)  =  -0.00
                               Iterations  =  20
                                  Total H  = 1.110124e+02
                                  Total O  = 5.550622e+01

----------------------------Distribution of species----------------------------

                                               Log       Log       Log    mole V
   Species          Molality    Activity  Molality  Activity     Gamma   cm³/mol

   OH-             6.281e-08   4.021e-08    -7.202    -7.396    -0.194     -4.44
   H+              5.922e-08   4.557e-08    -7.227    -7.341    -0.114      0.00
   H2O             5.551e+01   9.830e-01     1.744    -0.007     0.000     18.02
Cl            5.012e-01
   Cl-             5.012e-01   3.296e-01    -0.300    -0.482    -0.182     17.53
   HCl             3.584e-09   5.858e-09    -8.446    -8.232     0.213     (0)  
H(0)          2.244e-16
   H2              1.122e-16   1.259e-16   -15.950   -15.900     0.050     28.63
Na            5.012e-01
   Na+             5.012e-01   3.637e-01    -0.300    -0.439    -0.139     -1.93
   NaOH            1.303e-18   1.462e-18   -17.885   -17.835     0.050     (0)  
O(0)          0.000e+00
   O2              0.000e+00   0.000e+00   -67.564   -67.514     0.050     28.29

------------------------------Saturation indices-------------------------------

  Phase               SI** log IAP   log K(278 K,   1 atm)

  H2(g)           -12.87    -15.90   -3.03  H2
  H2O(g)           -2.06     -0.01    2.06  H2O
  Halite           -2.47     -0.92    1.55  NaCl
  O2(g)           -64.80    -67.51   -2.71  O2

**For a gas, SI = log10(fugacity). Fugacity = pressure * phi / 1 atm.
  For ideal gases, phi = 1.

Reaction step 19.

Using solution 1.	
Using temperature 1.	
Using pressure 1.	
Using reaction 1.	

Reaction 1.	

	  5.019e-01 moles of the following reaction have been added:

	                 Relative
	Reactant            moles

	NaCl                 1.00000

	                 Relative
	Element             moles
	Cl                   1.00000
	Na                   1.00000

-----------------------------Solution composition------------------------------

	Elements           Molality       Moles

	Cl                5.019e-01   5.019e-01
	Na                5.019e-01   5.019e-01

----------------------------Description of solution----------------------------

                                       pH  =   7.341      Charge balance
                                       pe  =  -0.813      Adjusted to redox equilibrium
      Specific Conductance (µS/cm,   5°C)  = 28456
                          Density (g/cm³)  =   1.02130
                               Volume (L)  =   1.00787
                        Viscosity (mPa s)  =   1.57283
                        Activity of water  =   0.983
                 Ionic strength (mol/kgw)  =   5.019e-01
                       Mass of water (kg)  =   1.000e+00
                 Total alkalinity (eq/kg)  =   7.384e-17
                         Temperature (°C)  =   5.00
                  Electrical balance (eq)  =  -2.734e-12
 Percent error, 100*(Cat-|An|)/(Cat+|An|)  =  -0.00
                               Iterations  =  22
                                  Total H  = 1.110124e+02
                                  Total O  = 5.550622e+01

----------------------------Distribution of species----------------------------

                                               Log       Log       Log    mole V
   Species          Molality    Activity  Molality  Activity     Gamma   cm³/mol

   OH-             6.282e-08   4.021e-08    -7.202    -7.396    -0.194     -4.44
   H+              5.923e-08   4.557e-08    -7.227    -7.341    -0.114      0.00
   H2O             5.551e+01   9.829e-01     1.744    -0.007     0.000     18.02
Cl            5.019e-01
   Cl-             5.019e-01   3.300e-01    -0.299    -0.481    -0.182     17.53
   HCl             3.586e-09   5.865e-09    -8.445    -8.232     0.214     (0)  
H(0)          1.370e-16
   H2              6.848e-17   7.687e-17   -16.164   -16.114     0.050     28.63
Na            5.019e-01
   Na+             5.019e-01   3.642e-01    -0.299    -0.439    -0.139     -1.93
   NaOH            1.304e-18   1.464e-18   -17.885   -17.834     0.050     (0)  
O(0)          0.000e+00
   O2              0.000e+00   0.000e+00   -67.135   -67.085     0.050     28.29

------------------------------Saturation indices-------------------------------

  Phase               SI** log IAP   log K(278 K,   1 atm)

  H2(g)           -13.08    -16.11   -3.03  H2
  H2O(g)           -2.06     -0.01    2.06  H2O
  Halite           -2.47     -0.92    1.55  NaCl
  O2(g)           -64.37    -67.09   -2.71  O2

**For a gas, SI = log10(fugacity). Fugacity = pressure * phi / 1 atm.
  For ideal gases, phi = 1.

Reaction step 20.

Using solution 1.	
Using temperature 1.	
Using pressure 1.	
Using reaction 1.	

Reaction 1.	

	  5.079e-01 moles of the following reaction have been added:

	                 Relative
	Reactant            moles

	NaCl                 1.00000

	                 Relative
	Element             moles
	Cl                   1.00000
	Na                   1.00000

-----------------------------Solution composition------------------------------

	Elements           Molality       Moles

	Cl                5.079e-01   5.079e-01
	Na                5.079e-01   5.079e-01

----------------------------Description of solution----------------------------

                                       pH  =   7.341      Charge balance
                                       pe  =  -0.602      Adjusted to redox equilibrium
      Specific Conductance (µS/cm,   5°C)  = 28752
                          Density (g/cm³)  =   1.02154
                               Volume (L)  =   1.00797
                        Viscosity (mPa s)  =   1.57350
                        Activity of water  =   0.983
                 Ionic strength (mol/kgw)  =   5.079e-01
                       Mass of water (kg)  =   1.000e+00
                 Total alkalinity (eq/kg)  =   7.986e-19
                         Temperature (°C)  =   5.00
                  Electrical balance (eq)  =  -9.577e-15
 Percent error, 100*(Cat-|An|)/(Cat+|An|)  =  -0.00
                               Iterations  =  11
                                  Total H  = 1.110124e+02
                                  Total O  = 5.550622e+01

----------------------------Distribution of species----------------------------

                                               Log       Log       Log    mole V
   Species          Molality    Activity  Molality  Activity     Gamma   cm³/mol

   OH-             6.288e-08   4.019e-08    -7.201    -7.396    -0.194     -4.43
   H+              5.927e-08   4.558e-08    -7.227    -7.341    -0.114      0.00
   H2O             5.551e+01   9.827e-01     1.744    -0.008     0.000     18.02
Cl            5.079e-01
   Cl-             5.079e-01   3.335e-01    -0.294    -0.477    -0.183     17.54
   HCl             3.605e-09   5.929e-09    -8.443    -8.227     0.216     (0)  
H(0)          5.189e-17
   H2              2.595e-17   2.917e-17   -16.586   -16.535     0.051     28.63
Na            5.079e-01
   Na+             5.079e-01   3.685e-01    -0.294    -0.434    -0.139     -1.92
   NaOH            1.317e-18   1.481e-18   -17.880   -17.830     0.051     (0)  
O(0)          0.000e+00
   O2              0.000e+00   0.000e+00   -66.294   -66.243     0.051     28.29

------------------------------Saturation indices-------------------------------

  Phase               SI** log IAP   log K(278 K,   1 atm)

  H2(g)           -13.50    -16.54   -3.03  H2
  H2O(g)           -2.06     -0.01    2.06  H2O
  Halite           -2.46     -0.91    1.55  NaCl
  O2(g)           -63.53    -66.24   -2.71  O2

**For a gas, SI = log10(fugacity). Fugacity = pressure * phi / 1 atm.
  For ideal gases, phi = 1.

Reaction step 21.

Using solution 1.	
Using temperature 1.	
Using pressure 1.	
Using reaction 1.	

Reaction 1.	

	  6.556e-01 moles of the following reaction have been added:

	                 Relative
	Reactant            moles

	NaCl                 1.00000

	                 Relative
	Element             moles
	Cl                   1.00000
	Na                   1.00000

-----------------------------Solution composition------------------------------

	Elements           Molality       Moles

	Cl                6.556e-01   6.556e-01
	Na                6.556e-01   6.556e-01

----------------------------Description of solution----------------------------

                                       pH  =   7.339      Charge balance
                                       pe  =  -0.202      Adjusted to redox equilibrium
      Specific Conductance (µS/cm,   5°C)  = 35878
                          Density (g/cm³)  =   1.02760
                               Volume (L)  =   1.01042
                        Viscosity (mPa s)  =   1.59080
                        Activity of water  =   0.978
                 Ionic strength (mol/kgw)  =   6.556e-01
                       Mass of water (kg)  =   1.000e+00
                 Total alkalinity (eq/kg)  =  -3.681e-17
                         Temperature (°C)  =   5.00
                  Electrical balance (eq)  =  -1.198e-11
 Percent error, 100*(Cat-|An|)/(Cat+|An|)  =  -0.00
                               Iterations  =  15
                                  Total H  = 1.110124e+02
                                  Total O  = 5.550622e+01

----------------------------Distribution of species----------------------------

                                               Log       Log       Log    mole V
   Species          Molality    Activity  Molality  Activity     Gamma   cm³/mol

   OH-             6.420e-08   3.975e-08    -7.192    -7.401    -0.208     -4.19
   H+              6.025e-08   4.584e-08    -7.220    -7.339    -0.119      0.00
   H2O             5.551e+01   9.777e-01     1.744    -0.010     0.000     18.02
Cl            6.556e-01
   Cl-             6.556e-01   4.200e-01    -0.183    -0.377    -0.193     17.62
   HCl             3.950e-09   7.510e-09    -8.403    -8.124     0.279     (0)  
H(0)          8.025e-18
   H2              4.013e-18   4.666e-18   -17.397   -17.331     0.066     28.63
Na            6.556e-01
   Na+             6.556e-01   4.759e-01    -0.183    -0.322    -0.139     -1.78
   NaOH            1.627e-18   1.892e-18   -17.789   -17.723     0.066     (0)  
O(0)          0.000e+00
   O2              0.000e+00   0.000e+00   -64.722   -64.656     0.066     28.29

------------------------------Saturation indices-------------------------------

  Phase               SI** log IAP   log K(278 K,   1 atm)

  H2(g)           -14.30    -17.33   -3.03  H2
  H2O(g)           -2.07     -0.01    2.06  H2O
  Halite           -2.25     -0.70    1.55  NaCl
  O2(g)           -61.94    -64.66   -2.71  O2

**For a gas, SI = log10(fugacity). Fugacity = pressure * phi / 1 atm.
  For ideal gases, phi = 1.

Reaction step 22.

Using solution 1.	
Using temperature 1.	
Using pressure 1.	
Using reaction 1.	

Reaction 1.	

	  6.844e-01 moles of the following reaction have been added:

	                 Relative
	Reactant            moles

	NaCl                 1.00000

	                 Relative
	Element             moles
	Cl                   1.00000
	Na                   1.00000

-----------------------------Solution composition------------------------------

	Elements           Molality       Moles

	Cl                6.844e-01   6.844e-01
	Na                6.844e-01   6.844e-01

----------------------------Description of solution----------------------------

                                       pH  =   7.338      Charge balance
                                       pe  =  -0.639      Adjusted to redox equilibrium
      Specific Conductance (µS/cm,   5°C)  = 37223
                          Density (g/cm³)  =   1.02878
                               Volume (L)  =   1.01091
                        Viscosity (mPa s)  =   1.59428
                        Activity of water  =   0.977
                 Ionic strength (mol/kgw)  =   6.844e-01
                       Mass of water (kg)  =   1.000e+00
                 Total alkalinity (eq/kg)  =   4.598e-17
                         Temperature (°C)  =   5.00
                  Electrical balance (eq)  =  -5.186e-14
 Percent error, 100*(Cat-|An|)/(Cat+|An|)  =  -0.00
                               Iterations  =  12
                                  Total H  = 1.110124e+02
                                  Total O  = 5.550622e+01

----------------------------Distribution of species----------------------------

                                               Log       Log       Log    mole V
   Species          Molality    Activity  Molality  Activity     Gamma   cm³/mol

   OH-             6.442e-08   3.967e-08    -7.191    -7.402    -0.211     -4.15
   H+              6.042e-08   4.589e-08    -7.219    -7.338    -0.119      0.00
   H2O             5.551e+01   9.767e-01     1.744    -0.010     0.000     18.02
Cl            6.844e-01
   Cl-             6.844e-01   4.367e-01    -0.165    -0.360    -0.195     17.64
   HCl             3.997e-09   7.816e-09    -8.398    -8.107     0.291     (0)  
H(0)          5.968e-17
   H2              2.984e-17   3.494e-17   -16.525   -16.457     0.068     28.63
Na            6.844e-01
   Na+             6.844e-01   4.973e-01    -0.165    -0.303    -0.139     -1.75
   NaOH            1.685e-18   1.973e-18   -17.773   -17.705     0.068     (0)  
O(0)          0.000e+00
   O2              0.000e+00   0.000e+00   -66.474   -66.406     0.068     28.29

------------------------------Saturation indices-------------------------------

  Phase               SI** log IAP   log K(278 K,   1 atm)

  H2(g)           -13.42    -16.46   -3.03  H2
  H2O(g)           -2.07     -0.01    2.06  H2O
  Halite           -2.22     -0.66    1.55  NaCl
  O2(g)           -63.69    -66.41   -2.71  O2

**For a gas, SI = log10(fugacity). Fugacity = pressure * phi / 1 atm.
  For ideal gases, phi = 1.

Reaction step 23.

Using solution 1.	
Using temperature 1.	
Using pressure 1.	
Using reaction 1.	

Reaction 1.	

	  7.247e-01 moles of the following reaction have been added:

	                 Relative
	Reactant            moles

	NaCl                 1.00000

	                 Relative
	Element             moles
	Cl                   1.00000
	Na                   1.00000

-----------------------------Solution composition------------------------------

	Elements           Molality       Moles

	Cl                7.247e-01   7.247e-01
	Na                7.247e-01   7.247e-01

----------------------------Description of solution----------------------------

                                       pH  =   7.338      Charge balance
                                       pe  =  -0.752      Adjusted to redox equilibrium
      Specific Conductance (µS/cm,   5°C)  = 39079
                          Density (g/cm³)  =   1.03041
                               Volume (L)  =   1.01159
                        Viscosity (mPa s)  =   1.59919
                        Activity of water  =   0.975
                 Ionic strength (mol/kgw)  =   7.247e-01
                       Mass of water (kg)  =   1.000e+00
                 Total alkalinity (eq/kg)  =   9.603e-17
                         Temperature (°C)  =   5.00
                  Electrical balance (eq)  =  -7.367e-16
 Percent error, 100*(Cat-|An|)/(Cat+|An|)  =  -0.00
                               Iterations  =  12
                                  Total H  = 1.110124e+02
                                  Total O  = 5.550622e+01

----------------------------Distribution of species----------------------------

                                               Log       Log       Log    mole V
   Species          Molality    Activity  Molality  Activity     Gamma   cm³/mol

   OH-             6.470e-08   3.956e-08    -7.189    -7.403    -0.214     -4.08
   H+              6.064e-08   4.596e-08    -7.217    -7.338    -0.120      0.00
   H2O             5.551e+01   9.754e-01     1.744    -0.011     0.000     18.02
Cl            7.247e-01
   Cl-             7.247e-01   4.599e-01    -0.140    -0.337    -0.197     17.66
   HCl             4.052e-09   8.243e-09    -8.392    -8.084     0.308     (0)  
H(0)          1.000e-16
   H2              5.001e-17   5.909e-17   -16.301   -16.228     0.072     28.63
Na            7.247e-01
   Na+             7.247e-01   5.273e-01    -0.140    -0.278    -0.138     -1.72
   NaOH            1.765e-18   2.086e-18   -17.753   -17.681     0.072     (0)  
O(0)          0.000e+00
   O2              0.000e+00   0.000e+00   -66.936   -66.863     0.072     28.29

------------------------------Saturation indices-------------------------------

  Phase               SI** log IAP   log K(278 K,   1 atm)

  H2(g)           -13.19    -16.23   -3.03  H2
  H2O(g)           -2.07     -0.01    2.06  H2O
  Halite           -2.17     -0.62    1.55  NaCl
  O2(g)           -64.15    -66.86   -2.71  O2

**For a gas, SI = log10(fugacity). Fugacity = pressure * phi / 1 atm.
  For ideal gases, phi = 1.

Reaction step 24.

Using solution 1.	
Using temperature 1.	
Using pressure 1.	
Using reaction 1.	

Reaction 1.	

	  7.875e-01 moles of the following reaction have been added:

	                 Relative
	Reactant            moles

	NaCl                 1.00000

	                 Relative
	Element             moles
	Cl                   1.00000
	Na                   1.00000

-----------------------------Solution composition------------------------------

	Elements           Molality       Moles

	Cl                7.875e-01   7.875e-01
	Na                7.875e-01   7.875e-01

----------------------------Description of solution----------------------------

                                       pH  =   7.337      Charge balance
                                       pe  =  -0.817      Adjusted to redox equilibrium
      Specific Conductance (µS/cm,   5°C)  = 41928
                          Density (g/cm³)  =   1.03295
                               Volume (L)  =   1.01266
                        Viscosity (mPa s)  =   1.60700
                        Activity of water  =   0.973
                 Ionic strength (mol/kgw)  =   7.875e-01
                       Mass of water (kg)  =   1.000e+00
                 Total alkalinity (eq/kg)  =   1.294e-16
                         Temperature (°C)  =   5.00
                  Electrical balance (eq)  =  -7.845e-11
 Percent error, 100*(Cat-|An|)/(Cat+|An|)  =  -0.00
                               Iterations  =  16
                                  Total H  = 1.110124e+02
                                  Total O  = 5.550622e+01

----------------------------Distribution of species----------------------------

                                               Log       Log       Log    mole V
   Species          Molality    Activity  Molality  Activity     Gamma   cm³/mol

   OH-             6.509e-08   3.939e-08    -7.186    -7.405    -0.218     -3.99
   H+              6.097e-08   4.605e-08    -7.215    -7.337    -0.122      0.00
   H2O             5.551e+01   9.732e-01     1.744    -0.012     0.000     18.02
Cl            7.875e-01
   Cl-             7.875e-01   4.960e-01    -0.104    -0.305    -0.201     17.69
   HCl             4.118e-09   8.909e-09    -8.385    -8.050     0.335     (0)  
H(0)          1.338e-16
   H2              6.688e-17   8.018e-17   -16.175   -16.096     0.079     28.63
Na            7.875e-01
   Na+             7.875e-01   5.747e-01    -0.104    -0.241    -0.137     -1.66
   NaOH            1.888e-18   2.264e-18   -17.724   -17.645     0.079     (0)  
O(0)          0.000e+00
   O2              0.000e+00   0.000e+00   -67.209   -67.130     0.079     28.29

------------------------------Saturation indices-------------------------------

  Phase               SI** log IAP   log K(278 K,   1 atm)

  H2(g)           -13.06    -16.10   -3.03  H2
  H2O(g)           -2.07     -0.01    2.06  H2O
  Halite           -2.10     -0.55    1.55  NaCl
  O2(g)           -64.42    -67.13   -2.71  O2

**For a gas, SI = log10(fugacity). Fugacity = pressure * phi / 1 atm.
  For ideal gases, phi = 1.

Reaction step 25.

Using solution 1.	
Using temperature 1.	
Using pressure 1.	
Using reaction 1.	

Reaction 1.	

	  8.000e-01 moles of the following reaction have been added:

	                 Relative
	Reactant            moles

	NaCl                 1.00000

	                 Relative
	Element             moles
	Cl                   1.00000
	Na                   1.00000

-----------------------------Solution composition------------------------------

	Elements           Molality       Moles

	Cl                8.000e-01   8.000e-01
	Na                8.000e-01   8.000e-01

----------------------------Description of solution----------------------------

                                       pH  =   7.337      Charge balance
                                       pe  =  -0.823      Adjusted to redox equilibrium
      Specific Conductance (µS/cm,   5°C)  = 42487
[...]

  Phase               SI** log IAP   log K(368 K,   1 atm)

  H2(g)           -11.90    -15.01   -3.11  H2
  H2O(g)           -0.15     -0.07    0.08  H2O
  Halite           -0.62      0.99    1.62  NaCl
  O2(g)           -41.09    -44.20   -3.11  O2

**For a gas, SI = log10(fugacity). Fugacity = pressure * phi / 1 atm.
  For ideal gases, phi = 1.

------------------
End of simulation.
------------------

------------------------------------
Reading input data for simulation 7.
------------------------------------

	USE solution 1
	REACTION_TEMPERATURE
	 125.000000
	REACTION_PRESSURE
	 0.000000
	REACTION
	 NaCl 1
	0 0.706900 1.000000 2.000000 2.500000 3.534500
	USER_GRAPH
	-headings 125oC
	10 data 0, 16.632029, 17.160993, 18.622642, 19.141030, 19.404106,
	20 dim d(6)
	30 read d(1), d(2), d(3), d(4), d(5), d(6),
	40 if step_no = 1 then put(rho, 10)
	50 if step_no > 1 then Vmol = (1e3 + tot("Cl") * 58.4428) / (tot("Cl") * rho) - 1e3 / (tot("Cl") * get(10))
	60 if step_no = 1 then dif = 0 else dif = Vmol - d(step_no)
	62 if step_no = 1 then goto 90
	70 plot_xy tot("Na"), d(step_no), line_w = 0, color = Brown #aph_x tot("Na") # dif, str$(tc), str$(pressure), str$(step_no + get(1))
	80 plot_xy tot("Na"), Vmol, symbol = None, color = Brown #step_no = 6 then put(step_no + get(1), 1)
	90 end
	END
-----------------------------------------
Beginning of batch-reaction calculations.
-----------------------------------------

Reaction step 1.

Using solution 1.	
Using temperature 1.	
Using pressure 1.	
Using reaction 1.	

Reaction 1.	

	  0.000e+00 moles of the following reaction have been added:

	                 Relative
	Reactant            moles

	NaCl                 1.00000

	                 Relative
	Element             moles
	Cl                   1.00000
	Na                   1.00000

-----------------------------Solution composition------------------------------

	Elements           Molality       Moles

	Pure water     

----------------------------Description of solution----------------------------

                                       pH  =   5.945      Charge balance
                                       pe  =   0.727      Adjusted to redox equilibrium
      Specific Conductance (µS/cm, 125°C)  = 1
                          Density (g/cm³)  =   0.93903
                               Volume (L)  =   1.06493
                        Viscosity (mPa s)  =   0.22210
                        Activity of water  =   1.000
                 Ionic strength (mol/kgw)  =   1.137e-06
                       Mass of water (kg)  =   1.000e+00
                 Total alkalinity (eq/kg)  =   3.038e-17
                         Temperature (°C)  = 125.00
                           Pressure (atm)  =  2.29
                  Electrical balance (eq)  =  -3.038e-17
 Percent error, 100*(Cat-|An|)/(Cat+|An|)  =  -0.00
                               Iterations  =   9
                                  Total H  = 1.110124e+02
                                  Total O  = 5.550622e+01

----------------------------Distribution of species----------------------------

                                               Log       Log       Log    mole V
   Species          Molality    Activity  Molality  Activity     Gamma   cm³/mol

   OH-             1.137e-06   1.135e-06    -5.944    -5.945    -0.001     -8.39
   H+              1.137e-06   1.135e-06    -5.944    -5.945    -0.001      0.00
   H2O             5.551e+01   1.000e+00     1.744    -0.000     0.000     19.19
H(0)          3.040e-17
   H2              1.520e-17   1.520e-17   -16.818   -16.818     0.000     28.56
O(0)          5.287e-35
   O2              2.643e-35   2.643e-35   -34.578   -34.578     0.000     34.83

------------------------------Saturation indices-------------------------------

  Phase               SI** log IAP   log K(398 K,   2 atm)

  H2(g)           -13.77    -16.82   -3.05  H2
  H2O(g)            0.35     -0.00   -0.35  H2O
  O2(g)           -31.49    -34.58   -3.09  O2

**For a gas, SI = log10(fugacity). Fugacity = pressure * phi / 1 atm.
  For ideal gases, phi = 1.

Reaction step 2.

Using solution 1.	
Using temperature 1.	
Using pressure 1.	
Using reaction 1.	

Reaction 1.	

	  7.069e-01 moles of the following reaction have been added:

	                 Relative
	Reactant            moles

	NaCl                 1.00000

	                 Relative
	Element             moles
	Cl                   1.00000
	Na                   1.00000

-----------------------------Solution composition------------------------------

	Elements           Molality       Moles

	Cl                7.069e-01   7.069e-01
	Na                7.069e-01   7.069e-01

----------------------------Description of solution----------------------------

                                       pH  =   5.897      Charge balance
                                       pe  =   4.877      Adjusted to redox equilibrium
      Specific Conductance (µS/cm, 125°C)  = 199253
                          Density (g/cm³)  =   0.96664
                               Volume (L)  =   1.07725
                        Viscosity (mPa s)  =   0.24354
                        Activity of water  =   0.976
                 Ionic strength (mol/kgw)  =   7.069e-01
                       Mass of water (kg)  =   1.000e+00
                 Total alkalinity (eq/kg)  =   7.907e-16
                         Temperature (°C)  = 125.00
                           Pressure (atm)  =  2.24
                  Electrical balance (eq)  =  -2.224e-09
 Percent error, 100*(Cat-|An|)/(Cat+|An|)  =  -0.00
                               Iterations  =   7
                                  Total H  = 1.110124e+02
                                  Total O  = 5.550622e+01

----------------------------Distribution of species----------------------------

                                               Log       Log       Log    mole V
   Species          Molality    Activity  Molality  Activity     Gamma   cm³/mol

   OH-             1.833e-06   9.917e-07    -5.737    -6.004    -0.267     -5.34
   H+              1.786e-06   1.268e-06    -5.748    -5.897    -0.149      0.00
   H2O             5.551e+01   9.760e-01     1.744    -0.011     0.000     19.19
Cl            7.069e-01
   Cl-             7.069e-01   3.977e-01    -0.151    -0.400    -0.250     15.96
   HCl             4.679e-08   9.354e-08    -7.330    -7.029     0.301     (0)  
H(0)          1.613e-25
   H2              8.067e-26   9.493e-26   -25.093   -25.023     0.071     28.56
Na            7.069e-01
   Na+             7.069e-01   4.584e-01    -0.151    -0.339    -0.188      1.45
   NaOH            3.863e-17   4.545e-17   -16.413   -16.342     0.071     (0)  
O(0)          1.097e-18
   O2              5.487e-19   6.457e-19   -18.261   -18.190     0.071     34.83

------------------------------Saturation indices-------------------------------

  Phase               SI** log IAP   log K(398 K,   2 atm)

  H2(g)           -21.97    -25.02   -3.05  H2
  H2O(g)            0.34     -0.01   -0.35  H2O
  Halite           -2.37     -0.74    1.63  NaCl
  O2(g)           -15.10    -18.19   -3.09  O2

**For a gas, SI = log10(fugacity). Fugacity = pressure * phi / 1 atm.
  For ideal gases, phi = 1.

Reaction step 3.

Using solution 1.	
Using temperature 1.	
Using pressure 1.	
Using reaction 1.	

Reaction 1.	

	  1.000e+00 moles of the following reaction have been added:

	                 Relative
	Reactant            moles

	NaCl                 1.00000

	                 Relative
	Element             moles
	Cl                   1.00000
	Na                   1.00000

-----------------------------Solution composition------------------------------

	Elements           Molality       Moles

	Cl                1.000e+00   1.000e+00
	Na                1.000e+00   1.000e+00

----------------------------Description of solution----------------------------

                                       pH  =   5.891      Charge balance
                                       pe  =   0.205      Adjusted to redox equilibrium
      Specific Conductance (µS/cm, 125°C)  = 262459
                          Density (g/cm³)  =   0.97750
                               Volume (L)  =   1.08281
                        Viscosity (mPa s)  =   0.25240
                        Activity of water  =   0.966
                 Ionic strength (mol/kgw)  =   1.000e+00
                       Mass of water (kg)  =   1.000e+00
                 Total alkalinity (eq/kg)  =   6.637e-16
                         Temperature (°C)  = 125.00
                           Pressure (atm)  =  2.29
                  Electrical balance (eq)  =  -1.799e-09
 Percent error, 100*(Cat-|An|)/(Cat+|An|)  =  -0.00
                               Iterations  =   9
                                  Total H  = 1.110124e+02
                                  Total O  = 5.550622e+01

----------------------------Distribution of species----------------------------

                                               Log       Log       Log    mole V
   Species          Molality    Activity  Molality  Activity     Gamma   cm³/mol

   OH-             1.887e-06   9.687e-07    -5.724    -6.014    -0.289     -4.59
   H+              1.838e-06   1.285e-06    -5.736    -5.891    -0.155      0.00
   H2O             5.551e+01   9.660e-01     1.744    -0.015     0.000     19.19
Cl            1.000e+00
   Cl-             1.000e+00   5.411e-01    -0.000    -0.267    -0.267     16.33
   HCl             4.840e-08   1.290e-07    -7.315    -6.890     0.426     (0)  
H(0)          3.420e-16
   H2              1.710e-16   2.153e-16   -15.767   -15.667     0.100     28.56
Na            1.000e+00
   Na+             1.000e+00   6.556e-01     0.000    -0.183    -0.183      1.54
   NaOH            5.044e-17   6.351e-17   -16.297   -16.197     0.100     (0)  
O(0)          1.954e-37
   O2              9.769e-38   1.230e-37   -37.010   -36.910     0.100     34.83

------------------------------Saturation indices-------------------------------

  Phase               SI** log IAP   log K(398 K,   2 atm)

  H2(g)           -12.62    -15.67   -3.05  H2
  H2O(g)            0.34     -0.02   -0.35  H2O
  Halite           -2.08     -0.45    1.63  NaCl
  O2(g)           -33.82    -36.91   -3.09  O2

**For a gas, SI = log10(fugacity). Fugacity = pressure * phi / 1 atm.
  For ideal gases, phi = 1.

Reaction step 4.

Using solution 1.	
Using temperature 1.	
Using pressure 1.	
Using reaction 1.	

Reaction 1.	

	  2.000e+00 moles of the following reaction have been added:

	                 Relative
	Reactant            moles

	NaCl                 1.00000

	                 Relative
	Element             moles
	Cl                   1.00000
	Na                   1.00000

-----------------------------Solution composition------------------------------

	Elements           Molality       Moles

	Cl                2.000e+00   2.000e+00
	Na                2.000e+00   2.000e+00

----------------------------Description of solution----------------------------

                                       pH  =   5.881      Charge balance
                                       pe  =   5.141      Adjusted to redox equilibrium
      Specific Conductance (µS/cm, 125°C)  = 432156
                          Density (g/cm³)  =   1.01272
                               Volume (L)  =   1.10286
                        Viscosity (mPa s)  =   0.28411
                        Activity of water  =   0.932
                 Ionic strength (mol/kgw)  =   2.000e+00
                       Mass of water (kg)  =   1.000e+00
                 Total alkalinity (eq/kg)  =   2.200e-16
                         Temperature (°C)  = 125.00
                           Pressure (atm)  =  2.14
                  Electrical balance (eq)  =  -7.020e-14
 Percent error, 100*(Cat-|An|)/(Cat+|An|)  =  -0.00
                               Iterations  =   6
                                  Total H  = 1.110124e+02
                                  Total O  = 5.550622e+01

----------------------------Distribution of species----------------------------

                                               Log       Log       Log    mole V
   Species          Molality    Activity  Molality  Activity     Gamma   cm³/mol

   OH-             1.968e-06   9.131e-07    -5.706    -6.039    -0.334     -2.38
   H+              1.933e-06   1.315e-06    -5.714    -5.881    -0.167      0.00
   H2O             5.551e+01   9.320e-01     1.744    -0.031     0.000     19.19
Cl            2.000e+00
   Cl-             2.000e+00   1.021e+00     0.301     0.009    -0.292     17.24
   HCl             3.508e-08   2.491e-07    -7.455    -6.604     0.851     (0)  
H(0)          3.822e-26
   H2              1.911e-26   3.029e-26   -25.719   -25.519     0.200     28.56
Na            2.000e+00
   Na+             2.000e+00   1.456e+00     0.301     0.163    -0.138      1.72
   NaOH            8.388e-17   1.329e-16   -16.076   -15.876     0.200     (0)  
O(0)          7.299e-18
   O2              3.649e-18   5.784e-18   -17.438   -17.238     0.200     34.83

------------------------------Saturation indices-------------------------------

  Phase               SI** log IAP   log K(398 K,   2 atm)

  H2(g)           -22.47    -25.52   -3.05  H2
  H2O(g)            0.32     -0.03   -0.35  H2O
  Halite           -1.46      0.17    1.63  NaCl
  O2(g)           -14.15    -17.24   -3.09  O2

**For a gas, SI = log10(fugacity). Fugacity = pressure * phi / 1 atm.
  For ideal gases, phi = 1.

Reaction step 5.

Using solution 1.	
Using temperature 1.	
Using pressure 1.	
Using reaction 1.	

Reaction 1.	

	  2.500e+00 moles of the following reaction have been added:

	                 Relative
	Reactant            moles

	NaCl                 1.00000

	                 Relative
	Element             moles
	Cl                   1.00000
	Na                   1.00000

-----------------------------Solution composition------------------------------

	Elements           Molality       Moles

	Cl                2.500e+00   2.500e+00
	Na                2.500e+00   2.500e+00

----------------------------Description of solution----------------------------

                                       pH  =   5.879      Charge balance
                                       pe  =   5.744      Adjusted to redox equilibrium
      Specific Conductance (µS/cm, 125°C)  = 497598
                          Density (g/cm³)  =   1.02943
                               Volume (L)  =   1.11334
                        Viscosity (mPa s)  =   0.30095
                        Activity of water  =   0.915
                 Ionic strength (mol/kgw)  =   2.500e+00
                       Mass of water (kg)  =   1.000e+00
                 Total alkalinity (eq/kg)  =   2.126e-13
                         Temperature (°C)  = 125.00
                           Pressure (atm)  =  2.10
                  Electrical balance (eq)  =  -6.897e-11
 Percent error, 100*(Cat-|An|)/(Cat+|An|)  =  -0.00
                               Iterations  =   5
                                  Total H  = 1.110124e+02
                                  Total O  = 5.550622e+01

----------------------------Distribution of species----------------------------

                                               Log       Log       Log    mole V
   Species          Molality    Activity  Molality  Activity     Gamma   cm³/mol

   OH-             1.984e-06   8.923e-07    -5.702    -6.050    -0.347     -1.38
   H+              1.957e-06   1.321e-06    -5.708    -5.879    -0.171      0.00
   H2O             5.551e+01   9.150e-01     1.744    -0.039     0.000     19.19
Cl            2.500e+00
   Cl-             2.500e+00   1.264e+00     0.398     0.102    -0.296     17.59
   HCl             2.672e-08   3.097e-07    -7.573    -6.509     1.064     (0)  
H(0)          2.141e-27
   H2              1.071e-27   1.904e-27   -26.970   -26.720     0.250     28.56
Na            2.500e+00
   Na+             2.500e+00   1.950e+00     0.398     0.290    -0.108      1.78
   NaOH            9.785e-17   1.740e-16   -16.009   -15.759     0.250     (0)  
O(0)          1.587e-15
   O2              7.935e-16   1.411e-15   -15.100   -14.850     0.250     34.83

------------------------------Saturation indices-------------------------------

  Phase               SI** log IAP   log K(398 K,   2 atm)

  H2(g)           -23.67    -26.72   -3.05  H2
  H2O(g)            0.31     -0.04   -0.35  H2O
  Halite           -1.24      0.39    1.63  NaCl
  O2(g)           -11.76    -14.85   -3.09  O2

**For a gas, SI = log10(fugacity). Fugacity = pressure * phi / 1 atm.
  For ideal gases, phi = 1.

Reaction step 6.

Using solution 1.	
Using temperature 1.	
Using pressure 1.	
Using reaction 1.	

Reaction 1.	

	  3.534e+00 moles of the following reaction have been added:

	                 Relative
	Reactant            moles

	NaCl                 1.00000

	                 Relative
	Element             moles
	Cl                   1.00000
	Na                   1.00000

-----------------------------Solution composition------------------------------

	Elements           Molality       Moles

	Cl                3.535e+00   3.535e+00
	Na                3.535e+00   3.535e+00

----------------------------Description of solution----------------------------

                                       pH  =   5.878      Charge balance
                                       pe  =   5.530      Adjusted to redox equilibrium
      Specific Conductance (µS/cm, 125°C)  = 604213
                          Density (g/cm³)  =   1.06235
                               Volume (L)  =   1.13576
                        Viscosity (mPa s)  =   0.33802
                        Activity of water  =   0.880
                 Ionic strength (mol/kgw)  =   3.535e+00
                       Mass of water (kg)  =   1.000e+00
                 Total alkalinity (eq/kg)  =   2.666e-16
                         Temperature (°C)  = 125.00
                           Pressure (atm)  =  2.02
                  Electrical balance (eq)  =  -2.001e-11
 Percent error, 100*(Cat-|An|)/(Cat+|An|)  =  -0.00
                               Iterations  =  24
                                  Total H  = 1.110124e+02
                                  Total O  = 5.550622e+01

----------------------------Distribution of species----------------------------

                                               Log       Log       Log    mole V
   Species          Molality    Activity  Molality  Activity     Gamma   cm³/mol

   OH-             1.995e-06   8.568e-07    -5.700    -6.067    -0.367      0.56
   H+              1.981e-06   1.323e-06    -5.703    -5.878    -0.175      0.00
   H2O             5.551e+01   8.798e-01     1.744    -0.056     0.000     19.19
Cl            3.535e+00
   Cl-             3.535e+00   1.781e+00     0.548     0.251    -0.298     18.18
   HCl             1.368e-08   4.369e-07    -7.864    -6.360     1.504     (0)  
H(0)          4.536e-27
   H2              2.268e-27   5.117e-27   -26.644   -26.291     0.353     28.56
Na            3.535e+00
   Na+             3.535e+00   3.229e+00     0.548     0.509    -0.039      1.86
   NaOH            1.226e-16   2.767e-16   -15.911   -15.558     0.353     (0)  
O(0)          1.601e-16
   O2              8.005e-17   1.806e-16   -16.097   -15.743     0.353     34.83

------------------------------Saturation indices-------------------------------

  Phase               SI** log IAP   log K(398 K,   2 atm)

  H2(g)           -23.24    -26.29   -3.05  H2
  H2O(g)            0.30     -0.06   -0.35  H2O
  Halite           -0.87      0.76    1.63  NaCl
  O2(g)           -12.65    -15.74   -3.09  O2

**For a gas, SI = log10(fugacity). Fugacity = pressure * phi / 1 atm.
  For ideal gases, phi = 1.

------------------
End of simulation.
------------------

------------------------------------
Reading input data for simulation 8.
------------------------------------

