WARNING: Database file from DATABASE keyword is used; command line argument ignored.
   Input file: Vm_NH4Cl_sol
  Output file: Vm_NH4Cl_sol.out
Database file: ../database/Amm.dat

------------------
Reading data base.
------------------

	SOLUTION_MASTER_SPECIES
	SOLUTION_SPECIES
	PHASES
	EXCHANGE_MASTER_SPECIES
	EXCHANGE_SPECIES
	SURFACE_MASTER_SPECIES
	SURFACE_SPECIES
	RATES
	END
------------------------------------
Reading input data for simulation 1.
------------------------------------

	DATABASE ../database/Amm.dat
	SOLUTION 1
	 pH 7 charge
	END
-------------------------------------------
Beginning of initial solution calculations.
-------------------------------------------

Initial solution 1.	

-----------------------------Solution composition------------------------------

	Elements           Molality       Moles

	Pure water     

----------------------------Description of solution----------------------------

                                       pH  =   6.997      Charge balance
                                       pe  =   4.000    
       Specific Conductance (uS/cm, 25 oC) = 0
                          Density (g/cm3)  =   0.99704
                               Volume (L)  =   1.00297
                        Activity of water  =   1.000
                           Ionic strength  =   1.006e-07
                       Mass of water (kg)  =   1.000e+00
                 Total alkalinity (eq/kg)  =   3.040e-17
                    Total carbon (mol/kg)  =   0.000e+00
                       Total CO2 (mol/kg)  =   0.000e+00
                      Temperature (deg C)  =  25.00
                  Electrical balance (eq)  =  -3.040e-17
 Percent error, 100*(Cat-|An|)/(Cat+|An|)  =  -0.00
                               Iterations  =   2
                                  Total H  = 1.110124e+02
                                  Total O  = 5.550622e+01

----------------------------Distribution of species----------------------------

                                               Log       Log       Log    mole V
   Species          Molality    Activity  Molality  Activity     Gamma   cm3/mol

   OH-             1.006e-07   1.006e-07    -6.997    -6.997    -0.000     -4.14
   H+              1.006e-07   1.006e-07    -6.997    -6.997    -0.000      0.00
   H2O             5.551e+01   1.000e+00     1.744    -0.000     0.000     18.07
H(0)          1.433e-25
   H2              7.166e-26   7.166e-26   -25.145   -25.145     0.000     28.61
O(0)          0.000e+00
   O2              0.000e+00   0.000e+00   -42.090   -42.090     0.000     30.40

------------------------------Saturation indices-------------------------------

	Phase               SI   log IAP   log K(298 K,   1 atm)

	H2(g)           -22.04    -25.14   -3.10  H2
	H2O(g)           -1.50     -0.00    1.50  H2O
	O2(g)           -39.20    -42.09   -2.89  O2


------------------
End of simulation.
------------------

------------------------------------
Reading input data for simulation 2.
------------------------------------

	END
------------------
End of simulation.
------------------

------------------------------------
Reading input data for simulation 3.
------------------------------------

	USE solution 1
	REACTION_TEMPERATURE
	 12.500000
	REACTION_PRESSURE
	 1.000000
	REACTION
	 AmmHCl 1
	0 0.001000 0.005000 0.010010 0.020020 0.050060 0.100130 0.200260 0.500650 0.600780 
	USER_GRAPH
	 -headings 12.C_1.atm
	 -axis_titles "NH4Cl / (mol/kg H2O)" "NH4Cl molar volume / (cm3/mol)"
	10 data 0, 34.510000, 35.508000, 35.523000, 34.517000, 34.701000, 35.071000, 35.959000, 36.529000, 36.418000, 
	20 dim d(10)
	30 read d(1), d(2), d(3), d(4), d(5), d(6), d(7), d(8), d(9), d(10), 
	40 if step_no = 1 then put(rho, 10)
	50 if step_no > 1 then Vmol = (1e3 + tot("Cl") * 53.4917) / (tot("Cl") * rho) - 1e3 / (tot("Cl") * get(10))
	60 if step_no = 1 then dif = 0 else dif = Vmol - d(step_no)
	62 if tot("Cl") > 10 or tc > 200 or pressure > 1e3 then dif = 0 
	90 if step_no = 10 then put(step_no + get(1), 1)
	100 if step_no = 1 then goto 150
	110 plot_xy tot("Cl"), d(step_no), symbol = Square, line_w = 0, color = Red
	120 plot_xy tot("Cl"), Vmol, symbol = None, color = Red
	150 end
	END
-----------------------------------------
Beginning of batch-reaction calculations.
-----------------------------------------

Reaction step 1.

Using solution 1.	
Using temperature 1.	
Using pressure 1.	
Using reaction 1.	

Reaction 1.	

	  0.000e+00 moles of the following reaction have been added:

	                 Relative
	Reactant            moles

	AmmHCl               1.00000

	                 Relative
	Element             moles
	Amm                  1.00000
	Cl                   1.00000
	H                    1.00000

-----------------------------Solution composition------------------------------

	Elements           Molality       Moles

	Pure water     

----------------------------Description of solution----------------------------

                                       pH  =   7.218      Charge balance
                                       pe  =  -0.356      Adjusted to redox equilibrium
       Specific Conductance (uS/cm, 12 oC) = 0
                          Density (g/cm3)  =   0.99944
                               Volume (L)  =   1.00056
                        Activity of water  =   1.000
                           Ionic strength  =   6.054e-08
                       Mass of water (kg)  =   1.000e+00
                 Total alkalinity (eq/kg)  =   3.040e-17
                    Total carbon (mol/kg)  =   0.000e+00
                       Total CO2 (mol/kg)  =   0.000e+00
                      Temperature (deg C)  =  12.50
                  Electrical balance (eq)  =  -3.040e-17
 Percent error, 100*(Cat-|An|)/(Cat+|An|)  =  -0.00
                               Iterations  =  31
                                  Total H  = 1.110124e+02
                                  Total O  = 5.550622e+01

----------------------------Distribution of species----------------------------

                                               Log       Log       Log    mole V
   Species          Molality    Activity  Molality  Activity     Gamma   cm3/mol

   OH-             6.054e-08   6.052e-08    -7.218    -7.218    -0.000     -4.83
   H+              6.054e-08   6.052e-08    -7.218    -7.218    -0.000      0.00
   H2O             5.551e+01   1.000e+00     1.744    -0.000     0.000     18.03
H(0)          3.040e-17
   H2              1.520e-17   1.520e-17   -16.818   -16.818     0.000     28.62
O(0)          0.000e+00
   O2              0.000e+00   0.000e+00   -62.954   -62.954     0.000     29.24

------------------------------Saturation indices-------------------------------

	Phase               SI   log IAP   log K(285 K,   1 atm)

	H2(g)           -13.75    -16.82   -3.06  H2
	H2O(g)           -1.84     -0.00    1.84  H2O
	O2(g)           -60.16    -62.95   -2.79  O2


Reaction step 2.

Using solution 1.	
Using temperature 1.	
Using pressure 1.	
Using reaction 1.	

Reaction 1.	

	  1.000e-03 moles of the following reaction have been added:

	                 Relative
	Reactant            moles

	AmmHCl               1.00000

	                 Relative
	Element             moles
	Amm                  1.00000
	Cl                   1.00000
	H                    1.00000

-----------------------------Solution composition------------------------------

	Elements           Molality       Moles

	Amm               1.000e-03   1.000e-03
	Cl                1.000e-03   1.000e-03

----------------------------Description of solution----------------------------

                                       pH  =   6.334      Charge balance
                                       pe  =  -0.571      Adjusted to redox equilibrium
       Specific Conductance (uS/cm, 12 oC) = 108
                          Density (g/cm3)  =   0.99946
                               Volume (L)  =   1.00060
                        Activity of water  =   1.000
                           Ionic strength  =   1.000e-03
                       Mass of water (kg)  =   1.000e+00
                 Total alkalinity (eq/kg)  =   4.256e-16
                    Total carbon (mol/kg)  =   0.000e+00
                       Total CO2 (mol/kg)  =   0.000e+00
                      Temperature (deg C)  =  12.50
                  Electrical balance (eq)  =   8.391e-15
 Percent error, 100*(Cat-|An|)/(Cat+|An|)  =   0.00
                               Iterations  =   9
                                  Total H  = 1.110134e+02
                                  Total O  = 5.550622e+01

----------------------------Distribution of species----------------------------

                                               Log       Log       Log    mole V
   Species          Molality    Activity  Molality  Activity     Gamma   cm3/mol

   H+              4.792e-07   4.636e-07    -6.319    -6.334    -0.014      0.00
   OH-             8.185e-09   7.902e-09    -8.087    -8.102    -0.015     -4.81
   H2O             5.551e+01   1.000e+00     1.744    -0.000     0.000     18.03
Amm           1.000e-03
   AmmH+           9.995e-04   9.647e-04    -3.000    -3.016    -0.015     17.44
   Amm             4.711e-07   4.712e-07    -6.327    -6.327     0.000     24.14
Cl            1.000e-03
   Cl-             1.000e-03   9.656e-04    -3.000    -3.015    -0.015     17.53
H(0)          4.807e-15
   H2              2.404e-15   2.404e-15   -14.619   -14.619     0.000     28.62
O(0)          0.000e+00
   O2              0.000e+00   0.000e+00   -67.353   -67.353     0.000     29.24

------------------------------Saturation indices-------------------------------

	Phase               SI   log IAP   log K(285 K,   1 atm)

	Amm(g)           -8.40     -6.33    2.07  Amm
	H2(g)           -11.55    -14.62   -3.06  H2
	H2O(g)           -1.84     -0.00    1.84  H2O
	O2(g)           -64.56    -67.35   -2.79  O2


Reaction step 3.

Using solution 1.	
Using temperature 1.	
Using pressure 1.	
Using reaction 1.	

Reaction 1.	

	  5.000e-03 moles of the following reaction have been added:

	                 Relative
	Reactant            moles

	AmmHCl               1.00000

	                 Relative
	Element             moles
	Amm                  1.00000
	Cl                   1.00000
	H                    1.00000

-----------------------------Solution composition------------------------------

	Elements           Molality       Moles

	Amm               5.000e-03   5.000e-03
	Cl                5.000e-03   5.000e-03

----------------------------Description of solution----------------------------

                                       pH  =   6.004      Charge balance
                                       pe  =  12.860      Adjusted to redox equilibrium
       Specific Conductance (uS/cm, 12 oC) = 526
                          Density (g/cm3)  =   0.99953
                               Volume (L)  =   1.00074
                        Activity of water  =   1.000
                           Ionic strength  =   5.000e-03
                       Mass of water (kg)  =   1.000e+00
                 Total alkalinity (eq/kg)  =   3.291e-17
                    Total carbon (mol/kg)  =   0.000e+00
                       Total CO2 (mol/kg)  =   0.000e+00
                      Temperature (deg C)  =  12.50
                  Electrical balance (eq)  =   2.258e-16
 Percent error, 100*(Cat-|An|)/(Cat+|An|)  =   0.00
                               Iterations  =  11
                                  Total H  = 1.110174e+02
                                  Total O  = 5.550622e+01

----------------------------Distribution of species----------------------------

                                               Log       Log       Log    mole V
   Species          Molality    Activity  Molality  Activity     Gamma   cm3/mol

   H+              1.060e-06   9.911e-07    -5.975    -6.004    -0.029      0.00
   OH-             3.984e-09   3.696e-09    -8.400    -8.432    -0.033     -4.77
   H2O             5.551e+01   9.998e-01     1.744    -0.000     0.000     18.03
Amm           5.000e-03
   AmmH+           4.999e-03   4.629e-03    -2.301    -2.335    -0.033     17.47
   Amm             1.056e-06   1.057e-06    -5.976    -5.976     0.001     24.14
Cl            5.000e-03
   Cl-             5.000e-03   4.639e-03    -2.301    -2.334    -0.033     17.57
H(0)          0.000e+00
   H2              0.000e+00   0.000e+00   -40.823   -40.822     0.001     28.62
O(0)          2.259e-15
   O2              1.129e-15   1.131e-15   -14.947   -14.947     0.001     29.24

------------------------------Saturation indices-------------------------------

	Phase               SI   log IAP   log K(285 K,   1 atm)

	Amm(g)           -8.05     -5.98    2.07  Amm
	H2(g)           -37.76    -40.82   -3.06  H2
	H2O(g)           -1.84     -0.00    1.84  H2O
	O2(g)           -12.16    -14.95   -2.79  O2


Reaction step 4.

Using solution 1.	
Using temperature 1.	
Using pressure 1.	
Using reaction 1.	

Reaction 1.	

	  1.001e-02 moles of the following reaction have been added:

	                 Relative
	Reactant            moles

	AmmHCl               1.00000

	                 Relative
	Element             moles
	Amm                  1.00000
	Cl                   1.00000
	H                    1.00000

-----------------------------Solution composition------------------------------

	Elements           Molality       Moles

	Amm               1.001e-02   1.001e-02
	Cl                1.001e-02   1.001e-02

----------------------------Description of solution----------------------------

                                       pH  =   5.865      Charge balance
                                       pe  =  13.028      Adjusted to redox equilibrium
       Specific Conductance (uS/cm, 12 oC) = 1036
                          Density (g/cm3)  =   0.99962
                               Volume (L)  =   1.00092
                        Activity of water  =   1.000
                           Ionic strength  =   1.001e-02
                       Mass of water (kg)  =   1.000e+00
                 Total alkalinity (eq/kg)  =   1.705e-15
                    Total carbon (mol/kg)  =   0.000e+00
                       Total CO2 (mol/kg)  =   0.000e+00
                      Temperature (deg C)  =  12.50
                  Electrical balance (eq)  =   3.904e-13
 Percent error, 100*(Cat-|An|)/(Cat+|An|)  =   0.00
                               Iterations  =  11
                                  Total H  = 1.110224e+02
                                  Total O  = 5.550622e+01

----------------------------Distribution of species----------------------------

                                               Log       Log       Log    mole V
   Species          Molality    Activity  Molality  Activity     Gamma   cm3/mol

   H+              1.492e-06   1.365e-06    -5.826    -5.865    -0.039      0.00
   OH-             2.975e-09   2.683e-09    -8.527    -8.571    -0.045     -4.74
   H2O             5.551e+01   9.997e-01     1.744    -0.000     0.000     18.03
Amm           1.001e-02
   AmmH+           1.001e-02   8.998e-03    -2.000    -2.046    -0.046     17.49
   Amm             1.489e-06   1.492e-06    -5.827    -5.826     0.001     24.14
Cl            1.001e-02
   Cl-             1.001e-02   9.035e-03    -2.000    -2.044    -0.045     17.59
H(0)          0.000e+00
   H2              0.000e+00   0.000e+00   -40.881   -40.880     0.001     28.62
O(0)          2.945e-15
   O2              1.473e-15   1.476e-15   -14.832   -14.831     0.001     29.24

------------------------------Saturation indices-------------------------------

	Phase               SI   log IAP   log K(285 K,   1 atm)

	Amm(g)           -7.90     -5.83    2.07  Amm
	H2(g)           -37.82    -40.88   -3.06  H2
	H2O(g)           -1.84     -0.00    1.84  H2O
	O2(g)           -12.04    -14.83   -2.79  O2


Reaction step 5.

Using solution 1.	
Using temperature 1.	
Using pressure 1.	
Using reaction 1.	

Reaction 1.	

	  2.002e-02 moles of the following reaction have been added:

	                 Relative
	Reactant            moles

	AmmHCl               1.00000

	                 Relative
	Element             moles
	Amm                  1.00000
	Cl                   1.00000
	H                    1.00000

-----------------------------Solution composition------------------------------

	Elements           Molality       Moles

	Amm               2.002e-02   2.002e-02
	Cl                2.002e-02   2.002e-02

----------------------------Description of solution----------------------------

                                       pH  =   5.729      Charge balance
                                       pe  =   0.183      Adjusted to redox equilibrium
       Specific Conductance (uS/cm, 12 oC) = 2026
                          Density (g/cm3)  =   0.99980
                               Volume (L)  =   1.00129
                        Activity of water  =   0.999
                           Ionic strength  =   2.002e-02
                       Mass of water (kg)  =   1.000e+00
                 Total alkalinity (eq/kg)  =   5.766e-13
                    Total carbon (mol/kg)  =   0.000e+00
                       Total CO2 (mol/kg)  =   0.000e+00
                      Temperature (deg C)  =  12.50
                  Electrical balance (eq)  =   5.377e-11
 Percent error, 100*(Cat-|An|)/(Cat+|An|)  =   0.00
                               Iterations  =  10
                                  Total H  = 1.110325e+02
                                  Total O  = 5.550622e+01

----------------------------Distribution of species----------------------------

                                               Log       Log       Log    mole V
   Species          Molality    Activity  Molality  Activity     Gamma   cm3/mol

   H+              2.092e-06   1.865e-06    -5.679    -5.729    -0.050      0.00
   OH-             2.258e-09   1.963e-09    -8.646    -8.707    -0.061     -4.69
   H2O             5.551e+01   9.993e-01     1.744    -0.000     0.000     18.03
Amm           2.002e-02
   AmmH+           2.002e-02   1.730e-02    -1.699    -1.762    -0.063     17.53
   Amm             2.090e-06   2.100e-06    -5.680    -5.678     0.002     24.14
Cl            2.002e-02
   Cl-             2.002e-02   1.743e-02    -1.699    -1.759    -0.060     17.63
H(0)          2.399e-15
   H2              1.200e-15   1.205e-15   -14.921   -14.919     0.002     28.62
O(0)          0.000e+00
   O2              0.000e+00   0.000e+00   -66.755   -66.753     0.002     29.24

------------------------------Saturation indices-------------------------------

	Phase               SI   log IAP   log K(285 K,   1 atm)

	Amm(g)           -7.75     -5.68    2.07  Amm
	H2(g)           -11.85    -14.92   -3.06  H2
	H2O(g)           -1.84     -0.00    1.84  H2O
	O2(g)           -63.96    -66.75   -2.79  O2


Reaction step 6.

Using solution 1.	
Using temperature 1.	
Using pressure 1.	
Using reaction 1.	

Reaction 1.	

	  5.006e-02 moles of the following reaction have been added:

	                 Relative
	Reactant            moles

	AmmHCl               1.00000

	                 Relative
	Element             moles
	Amm                  1.00000
	Cl                   1.00000
	H                    1.00000

-----------------------------Solution composition------------------------------

	Elements           Molality       Moles

	Amm               5.006e-02   5.006e-02
	Cl                5.006e-02   5.006e-02

----------------------------Description of solution----------------------------

                                       pH  =   5.556      Charge balance
                                       pe  =   0.392      Adjusted to redox equilibrium
       Specific Conductance (uS/cm, 12 oC) = 4867
                          Density (g/cm3)  =   1.00035
                               Volume (L)  =   1.00238
                        Activity of water  =   0.998
                           Ionic strength  =   5.006e-02
                       Mass of water (kg)  =   1.000e+00
                 Total alkalinity (eq/kg)  =   7.276e-17
                    Total carbon (mol/kg)  =   0.000e+00
                       Total CO2 (mol/kg)  =   0.000e+00
                      Temperature (deg C)  =  12.50
                  Electrical balance (eq)  =   1.313e-14
 Percent error, 100*(Cat-|An|)/(Cat+|An|)  =   0.00
                               Iterations  =  11
                                  Total H  = 1.110625e+02
                                  Total O  = 5.550622e+01

----------------------------Distribution of species----------------------------

                                               Log       Log       Log    mole V
   Species          Molality    Activity  Molality  Activity     Gamma   cm3/mol

   H+              3.245e-06   2.778e-06    -5.489    -5.556    -0.067      0.00
   OH-             1.616e-09   1.316e-09    -8.792    -8.881    -0.089     -4.59
   H2O             5.551e+01   9.983e-01     1.744    -0.001     0.000     18.03
Amm           5.006e-02
   AmmH+           5.006e-02   4.026e-02    -1.301    -1.395    -0.095     17.58
   Amm             3.244e-06   3.281e-06    -5.489    -5.484     0.005     24.14
Cl            5.006e-02
   Cl-             5.006e-02   4.092e-02    -1.301    -1.388    -0.088     17.70
H(0)          2.021e-15
   H2              1.010e-15   1.022e-15   -14.996   -14.991     0.005     28.62
O(0)          0.000e+00
   O2              0.000e+00   0.000e+00   -66.616   -66.611     0.005     29.24

------------------------------Saturation indices-------------------------------

	Phase               SI   log IAP   log K(285 K,   1 atm)

	Amm(g)           -7.55     -5.48    2.07  Amm
	H2(g)           -11.93    -14.99   -3.06  H2
	H2O(g)           -1.84     -0.00    1.84  H2O
	O2(g)           -63.82    -66.61   -2.79  O2


Reaction step 7.

Using solution 1.	
Using temperature 1.	
Using pressure 1.	
Using reaction 1.	

Reaction 1.	

	  1.001e-01 moles of the following reaction have been added:

	                 Relative
	Reactant            moles

	AmmHCl               1.00000

	                 Relative
	Element             moles
	Amm                  1.00000
	Cl                   1.00000
	H                    1.00000

-----------------------------Solution composition------------------------------

	Elements           Molality       Moles

	Amm               1.001e-01   1.001e-01
	Cl                1.001e-01   1.001e-01

----------------------------Description of solution----------------------------

                                       pH  =   5.431      Charge balance
                                       pe  =  13.484      Adjusted to redox equilibrium
       Specific Conductance (uS/cm, 12 oC) = 9361
                          Density (g/cm3)  =   1.00124
                               Volume (L)  =   1.00421
                        Activity of water  =   0.997
                           Ionic strength  =   1.001e-01
                       Mass of water (kg)  =   1.000e+00
                 Total alkalinity (eq/kg)  =   8.627e-14
                    Total carbon (mol/kg)  =   0.000e+00
                       Total CO2 (mol/kg)  =   0.000e+00
                      Temperature (deg C)  =  12.50
                  Electrical balance (eq)  =   1.902e-11
 Percent error, 100*(Cat-|An|)/(Cat+|An|)  =   0.00
                               Iterations  =  12
                                  Total H  = 1.111126e+02
                                  Total O  = 5.550622e+01

----------------------------Distribution of species----------------------------

                                               Log       Log       Log    mole V
   Species          Molality    Activity  Molality  Activity     Gamma   cm3/mol

   H+              4.476e-06   3.706e-06    -5.349    -5.431    -0.082      0.00
   OH-             1.287e-09   9.850e-10    -8.890    -9.007    -0.116     -4.46
   H2O             5.551e+01   9.966e-01     1.744    -0.001     0.000     18.03
Amm           1.001e-01
   AmmH+           1.001e-01   7.497e-02    -0.999    -1.125    -0.126     17.64
   Amm             4.475e-06   4.579e-06    -5.349    -5.339     0.010     24.14
Cl            1.001e-01
   Cl-             1.001e-01   7.714e-02    -0.999    -1.113    -0.113     17.77
H(0)          0.000e+00
   H2              0.000e+00   0.000e+00   -40.934   -40.924     0.010     28.62
O(0)          3.510e-15
   O2              1.755e-15   1.796e-15   -14.756   -14.746     0.010     29.24

------------------------------Saturation indices-------------------------------

	Phase               SI   log IAP   log K(285 K,   1 atm)

	Amm(g)           -7.41     -5.34    2.07  Amm
	H2(g)           -37.86    -40.92   -3.06  H2
	H2O(g)           -1.84     -0.00    1.84  H2O
	O2(g)           -11.96    -14.75   -2.79  O2


Reaction step 8.

Using solution 1.	
Using temperature 1.	
Using pressure 1.	
Using reaction 1.	

Reaction 1.	

	  2.003e-01 moles of the following reaction have been added:

	                 Relative
	Reactant            moles

	AmmHCl               1.00000

	                 Relative
	Element             moles
	Amm                  1.00000
	Cl                   1.00000
	H                    1.00000

-----------------------------Solution composition------------------------------

	Elements           Molality       Moles

	Amm               2.003e-01   2.003e-01
	Cl                2.003e-01   2.003e-01

----------------------------Description of solution----------------------------

                                       pH  =   5.312      Charge balance
                                       pe  =   1.177      Adjusted to redox equilibrium
       Specific Conductance (uS/cm, 12 oC) = 17871
                          Density (g/cm3)  =   1.00299
                               Volume (L)  =   1.00790
                        Activity of water  =   0.993
                           Ionic strength  =   2.003e-01
                       Mass of water (kg)  =   1.000e+00
                 Total alkalinity (eq/kg)  =   1.502e-14
                    Total carbon (mol/kg)  =   0.000e+00
                       Total CO2 (mol/kg)  =   0.000e+00
                      Temperature (deg C)  =  12.50
                  Electrical balance (eq)  =   6.125e-12
 Percent error, 100*(Cat-|An|)/(Cat+|An|)  =   0.00
                               Iterations  =  11
                                  Total H  = 1.112127e+02
                                  Total O  = 5.550622e+01

----------------------------Distribution of species----------------------------

                                               Log       Log       Log    mole V
   Species          Molality    Activity  Molality  Activity     Gamma   cm3/mol

   H+              6.091e-06   4.876e-06    -5.215    -5.312    -0.097      0.00
   OH-             1.049e-09   7.462e-10    -8.979    -9.127    -0.148     -4.24
   H2O             5.551e+01   9.932e-01     1.744    -0.003     0.000     18.03
Amm           2.003e-01
   AmmH+           2.003e-01   1.373e-01    -0.698    -0.862    -0.164     17.73
   Amm             6.089e-06   6.377e-06    -5.215    -5.195     0.020     24.14
Cl            2.003e-01
   Cl-             2.003e-01   1.442e-01    -0.698    -0.841    -0.143     17.89
H(0)          1.621e-16
   H2              8.107e-17   8.490e-17   -16.091   -16.071     0.020     28.62
O(0)          0.000e+00
   O2              0.000e+00   0.000e+00   -64.474   -64.454     0.020     29.24

------------------------------Saturation indices-------------------------------

	Phase               SI   log IAP   log K(285 K,   1 atm)

	Amm(g)           -7.27     -5.20    2.07  Amm
	H2(g)           -13.01    -16.07   -3.06  H2
	H2O(g)           -1.84     -0.00    1.84  H2O
	O2(g)           -61.66    -64.45   -2.79  O2


Reaction step 9.

Using solution 1.	
Using temperature 1.	
Using pressure 1.	
Using reaction 1.	

Reaction 1.	

	  5.007e-01 moles of the following reaction have been added:

	                 Relative
	Reactant            moles

	AmmHCl               1.00000

	                 Relative
	Element             moles
	Amm                  1.00000
	Cl                   1.00000
	H                    1.00000

-----------------------------Solution composition------------------------------

	Elements           Molality       Moles

	Amm               5.006e-01   5.007e-01
	Cl                5.006e-01   5.006e-01

----------------------------Description of solution----------------------------

                                       pH  =   5.167      Charge balance
                                       pe  =  13.757      Adjusted to redox equilibrium
       Specific Conductance (uS/cm, 12 oC) = 39628
                          Density (g/cm3)  =   1.00803
                               Volume (L)  =   1.01909
                        Activity of water  =   0.983
                           Ionic strength  =   5.006e-01
                       Mass of water (kg)  =   1.000e+00
                 Total alkalinity (eq/kg)  =   4.340e-15
                    Total carbon (mol/kg)  =   0.000e+00
                       Total CO2 (mol/kg)  =   0.000e+00
                      Temperature (deg C)  =  12.50
                  Electrical balance (eq)  =   2.926e-12
 Percent error, 100*(Cat-|An|)/(Cat+|An|)  =   0.00
                               Iterations  =  13
                                  Total H  = 1.115131e+02
                                  Total O  = 5.550622e+01

----------------------------Distribution of species----------------------------

                                               Log       Log       Log    mole V
   Species          Molality    Activity  Molality  Activity     Gamma   cm3/mol

   H+              8.862e-06   6.803e-06    -5.052    -5.167    -0.115      0.00
   OH-             8.303e-10   5.293e-10    -9.081    -9.276    -0.196     -3.69
   H2O             5.551e+01   9.830e-01     1.744    -0.007     0.000     18.03
Amm           5.006e-01
   AmmH+           5.006e-01   2.988e-01    -0.300    -0.525    -0.224     17.90
   Amm             8.861e-06   9.944e-06    -5.053    -5.002     0.050     24.14
Cl            5.006e-01
   Cl-             5.006e-01   3.279e-01    -0.300    -0.484    -0.184     18.11
H(0)          0.000e+00
   H2              0.000e+00   0.000e+00   -40.992   -40.942     0.050     28.62
O(0)          3.390e-15
   O2              1.695e-15   1.902e-15   -14.771   -14.721     0.050     29.24

------------------------------Saturation indices-------------------------------

	Phase               SI   log IAP   log K(285 K,   1 atm)

	Amm(g)           -7.07     -5.00    2.07  Amm
	H2(g)           -37.88    -40.94   -3.06  H2
	H2O(g)           -1.85     -0.01    1.84  H2O
	O2(g)           -11.93    -14.72   -2.79  O2


Reaction step 10.

Using solution 1.	
Using temperature 1.	
Using pressure 1.	
Using reaction 1.	

Reaction 1.	

	  6.008e-01 moles of the following reaction have been added:

	                 Relative
	Reactant            moles

	AmmHCl               1.00000

	                 Relative
	Element             moles
	Amm                  1.00000
	Cl                   1.00000
	H                    1.00000

-----------------------------Solution composition------------------------------

	Elements           Molality       Moles

	Amm               6.008e-01   6.008e-01
	Cl                6.008e-01   6.008e-01

----------------------------Description of solution----------------------------

                                       pH  =   5.141      Charge balance
                                       pe  =   1.121      Adjusted to redox equilibrium
       Specific Conductance (uS/cm, 12 oC) = 45232
                          Density (g/cm3)  =   1.00965
                               Volume (L)  =   1.02286
                        Activity of water  =   0.980
                           Ionic strength  =   6.008e-01
                       Mass of water (kg)  =   1.000e+00
                 Total alkalinity (eq/kg)  =   1.177e-15
                    Total carbon (mol/kg)  =   0.000e+00
                       Total CO2 (mol/kg)  =   0.000e+00
                      Temperature (deg C)  =  12.50
                  Electrical balance (eq)  =   1.026e-12
 Percent error, 100*(Cat-|An|)/(Cat+|An|)  =   0.00
                               Iterations  =  12
                                  Total H  = 1.116132e+02
                                  Total O  = 5.550622e+01

----------------------------Distribution of species----------------------------

                                               Log       Log       Log    mole V
   Species          Molality    Activity  Molality  Activity     Gamma   cm3/mol

   H+              9.489e-06   7.229e-06    -5.023    -5.141    -0.118      0.00
   OH-             7.966e-10   4.964e-10    -9.099    -9.304    -0.205     -3.53
   H2O             5.551e+01   9.796e-01     1.744    -0.009     0.000     18.03
Amm           6.008e-01
   AmmH+           6.008e-01   3.479e-01    -0.221    -0.459    -0.237     17.94
   Amm             9.489e-06   1.090e-05    -5.023    -4.963     0.060     24.14
Cl            6.008e-01
   Cl-             6.008e-01   3.864e-01    -0.221    -0.413    -0.192     18.17
H(0)          4.201e-16
   H2              2.101e-16   2.412e-16   -15.678   -15.618     0.060     28.62
O(0)          0.000e+00
   O2              0.000e+00   0.000e+00   -65.433   -65.373     0.060     29.24

------------------------------Saturation indices-------------------------------

	Phase               SI   log IAP   log K(285 K,   1 atm)

	Amm(g)           -7.03     -4.96    2.07  Amm
	H2(g)           -12.55    -15.62   -3.06  H2
	H2O(g)           -1.85     -0.01    1.84  H2O
	O2(g)           -62.58    -65.37   -2.79  O2


------------------
End of simulation.
------------------

------------------------------------
Reading input data for simulation 4.
------------------------------------

	USE solution 1
	REACTION_TEMPERATURE
	 15.000000
	REACTION_PRESSURE
	 1.000000
	REACTION
	 AmmHCl 1
	0 0.010010 0.020020 0.050000 0.050060 0.070000 0.100000 0.100130 0.200000 0.200260 0.300000 0.500000 0.500650 1.000000 1.500000 2.000000 3.000000 4.000000 5.000000 
	USER_GRAPH
	 -headings 15.C_1.atm
	 -axis_titles "NH4Cl / (mol/kg H2O)" "NH4Cl molar volume / (cm3/mol)"
	10 data 0, 35.535000, 35.029000, 35.869000, 35.113000, 35.744000, 35.941000, 35.283000, 36.836000, 36.021000, 36.087000, 36.605000, 36.602000, 36.899000, 37.271000, 37.651000, 38.095000, 38.312000, 38.988000, 
	20 dim d(19)
	30 read d(1), d(2), d(3), d(4), d(5), d(6), d(7), d(8), d(9), d(10), d(11), d(12), d(13), d(14), d(15), d(16), d(17), d(18), d(19), 
	40 if step_no = 1 then put(rho, 10)
	50 if step_no > 1 then Vmol = (1e3 + tot("Cl") * 53.4917) / (tot("Cl") * rho) - 1e3 / (tot("Cl") * get(10))
	60 if step_no = 1 then dif = 0 else dif = Vmol - d(step_no)
	62 if tot("Cl") > 10 or tc > 200 or pressure > 1e3 then dif = 0 
	90 if step_no = 19 then put(step_no + get(1), 1)
	100 if step_no = 1 then goto 150
	110 plot_xy tot("Cl"), d(step_no), symbol = Diamond, line_w = 0, color = Green
	120 plot_xy tot("Cl"), Vmol, symbol = None, color = Green
	150 end
	END
-----------------------------------------
Beginning of batch-reaction calculations.
-----------------------------------------

Reaction step 1.

Using solution 1.	
Using temperature 1.	
Using pressure 1.	
Using reaction 1.	

Reaction 1.	

	  0.000e+00 moles of the following reaction have been added:

	                 Relative
	Reactant            moles

	AmmHCl               1.00000

	                 Relative
	Element             moles
	Amm                  1.00000
	Cl                   1.00000
	H                    1.00000

-----------------------------Solution composition------------------------------

	Elements           Molality       Moles

	Pure water     

----------------------------Description of solution----------------------------

                                       pH  =   7.172      Charge balance
                                       pe  =  -0.315      Adjusted to redox equilibrium
       Specific Conductance (uS/cm, 15 oC) = 0
                          Density (g/cm3)  =   0.99910
                               Volume (L)  =   1.00090
                        Activity of water  =   1.000
                           Ionic strength  =   6.737e-08
                       Mass of water (kg)  =   1.000e+00
                 Total alkalinity (eq/kg)  =   3.040e-17
                    Total carbon (mol/kg)  =   0.000e+00
                       Total CO2 (mol/kg)  =   0.000e+00
                      Temperature (deg C)  =  15.00
                  Electrical balance (eq)  =  -3.040e-17
 Percent error, 100*(Cat-|An|)/(Cat+|An|)  =  -0.00
                               Iterations  =  31
                                  Total H  = 1.110124e+02
                                  Total O  = 5.550622e+01

----------------------------Distribution of species----------------------------

                                               Log       Log       Log    mole V
   Species          Molality    Activity  Molality  Activity     Gamma   cm3/mol

   OH-             6.737e-08   6.735e-08    -7.172    -7.172    -0.000     -4.65
   H+              6.737e-08   6.735e-08    -7.172    -7.172    -0.000      0.00
   H2O             5.551e+01   1.000e+00     1.744    -0.000     0.000     18.03
H(0)          3.040e-17
   H2              1.520e-17   1.520e-17   -16.818   -16.818     0.000     28.62
O(0)          0.000e+00
   O2              0.000e+00   0.000e+00   -62.083   -62.083     0.000     29.51

------------------------------Saturation indices-------------------------------

	Phase               SI   log IAP   log K(288 K,   1 atm)

	H2(g)           -13.75    -16.82   -3.07  H2
	H2O(g)           -1.77     -0.00    1.77  H2O
	O2(g)           -59.27    -62.08   -2.81  O2


Reaction step 2.

Using solution 1.	
Using temperature 1.	
Using pressure 1.	
Using reaction 1.	

Reaction 1.	

	  1.001e-02 moles of the following reaction have been added:

	                 Relative
	Reactant            moles

	AmmHCl               1.00000

	                 Relative
	Element             moles
	Amm                  1.00000
	Cl                   1.00000
	H                    1.00000

-----------------------------Solution composition------------------------------

	Elements           Molality       Moles

	Amm               1.001e-02   1.001e-02
	Cl                1.001e-02   1.001e-02

----------------------------Description of solution----------------------------

                                       pH  =   5.823      Charge balance
                                       pe  =  12.846      Adjusted to redox equilibrium
       Specific Conductance (uS/cm, 15 oC) = 1108
                          Density (g/cm3)  =   0.99928
                               Volume (L)  =   1.00127
                        Activity of water  =   1.000
                           Ionic strength  =   1.001e-02
                       Mass of water (kg)  =   1.000e+00
                 Total alkalinity (eq/kg)  =   9.785e-15
                    Total carbon (mol/kg)  =   0.000e+00
                       Total CO2 (mol/kg)  =   0.000e+00
                      Temperature (deg C)  =  15.00
                  Electrical balance (eq)  =   1.981e-12
 Percent error, 100*(Cat-|An|)/(Cat+|An|)  =   0.00
                               Iterations  =  11
                                  Total H  = 1.110224e+02
                                  Total O  = 5.550622e+01

----------------------------Distribution of species----------------------------

                                               Log       Log       Log    mole V
   Species          Molality    Activity  Molality  Activity     Gamma   cm3/mol

   H+              1.642e-06   1.501e-06    -5.785    -5.823    -0.039      0.00
   OH-             3.350e-09   3.020e-09    -8.475    -8.520    -0.045     -4.56
   H2O             5.551e+01   9.997e-01     1.744    -0.000     0.000     18.03
Amm           1.001e-02
   AmmH+           1.001e-02   8.994e-03    -2.000    -2.046    -0.046     17.63
   Amm             1.638e-06   1.642e-06    -5.786    -5.785     0.001     24.21
Cl            1.001e-02
   Cl-             1.001e-02   9.031e-03    -2.000    -2.044    -0.045     17.74
H(0)          0.000e+00
   H2              0.000e+00   0.000e+00   -40.445   -40.444     0.001     28.62
O(0)          2.947e-15
   O2              1.474e-15   1.477e-15   -14.832   -14.831     0.001     29.51

------------------------------Saturation indices-------------------------------

	Phase               SI   log IAP   log K(288 K,   1 atm)

	Amm(g)           -7.80     -5.78    2.01  Amm
	H2(g)           -37.37    -40.44   -3.07  H2
	H2O(g)           -1.77     -0.00    1.77  H2O
	O2(g)           -12.02    -14.83   -2.81  O2


Reaction step 3.

Using solution 1.	
Using temperature 1.	
Using pressure 1.	
Using reaction 1.	

Reaction 1.	

	  2.002e-02 moles of the following reaction have been added:

	                 Relative
	Reactant            moles

	AmmHCl               1.00000

	                 Relative
	Element             moles
	Amm                  1.00000
	Cl                   1.00000
	H                    1.00000

-----------------------------Solution composition------------------------------

	Elements           Molality       Moles

	Amm               2.002e-02   2.002e-02
	Cl                2.002e-02   2.002e-02

----------------------------Description of solution----------------------------

                                       pH  =   5.688      Charge balance
                                       pe  =   0.219      Adjusted to redox equilibrium
       Specific Conductance (uS/cm, 15 oC) = 2166
                          Density (g/cm3)  =   0.99946
                               Volume (L)  =   1.00163
                        Activity of water  =   0.999
                           Ionic strength  =   2.002e-02
                       Mass of water (kg)  =   1.000e+00
                 Total alkalinity (eq/kg)  =   3.138e-12
                    Total carbon (mol/kg)  =   0.000e+00
                       Total CO2 (mol/kg)  =   0.000e+00
                      Temperature (deg C)  =  15.00
                  Electrical balance (eq)  =   1.769e-10
 Percent error, 100*(Cat-|An|)/(Cat+|An|)  =   0.00
                               Iterations  =  10
                                  Total H  = 1.110325e+02
                                  Total O  = 5.550622e+01

----------------------------Distribution of species----------------------------

                                               Log       Log       Log    mole V
   Species          Molality    Activity  Molality  Activity     Gamma   cm3/mol

   H+              2.302e-06   2.051e-06    -5.638    -5.688    -0.050      0.00
   OH-             2.544e-09   2.210e-09    -8.595    -8.656    -0.061     -4.51
   H2O             5.551e+01   9.993e-01     1.744    -0.000     0.000     18.03
Amm           2.002e-02
   AmmH+           2.002e-02   1.729e-02    -1.699    -1.762    -0.064     17.66
   Amm             2.300e-06   2.310e-06    -5.638    -5.636     0.002     24.21
Cl            2.002e-02
   Cl-             2.002e-02   1.742e-02    -1.699    -1.759    -0.060     17.77
H(0)          2.399e-15
   H2              1.200e-15   1.205e-15   -14.921   -14.919     0.002     28.62
O(0)          0.000e+00
   O2              0.000e+00   0.000e+00   -65.884   -65.882     0.002     29.51

------------------------------Saturation indices-------------------------------

	Phase               SI   log IAP   log K(288 K,   1 atm)

	Amm(g)           -7.65     -5.64    2.01  Amm
	H2(g)           -11.85    -14.92   -3.07  H2
	H2O(g)           -1.77     -0.00    1.77  H2O
	O2(g)           -63.07    -65.88   -2.81  O2


Reaction step 4.

Using solution 1.	
Using temperature 1.	
Using pressure 1.	
Using reaction 1.	

Reaction 1.	

	  5.000e-02 moles of the following reaction have been added:

	                 Relative
	Reactant            moles

	AmmHCl               1.00000

	                 Relative
	Element             moles
	Amm                  1.00000
	Cl                   1.00000
	H                    1.00000

-----------------------------Solution composition------------------------------

	Elements           Molality       Moles

	Amm               5.000e-02   5.000e-02
	Cl                5.000e-02   5.000e-02

----------------------------Description of solution----------------------------

                                       pH  =   5.515      Charge balance
                                       pe  =  13.076      Adjusted to redox equilibrium
       Specific Conductance (uS/cm, 15 oC) = 5196
                          Density (g/cm3)  =   0.99999
                               Volume (L)  =   1.00273
                        Activity of water  =   0.998
                           Ionic strength  =   5.000e-02
                       Mass of water (kg)  =   1.000e+00
                 Total alkalinity (eq/kg)  =   5.326e-16
                    Total carbon (mol/kg)  =   0.000e+00
                       Total CO2 (mol/kg)  =   0.000e+00
                      Temperature (deg C)  =  15.00
                  Electrical balance (eq)  =   1.983e-13
 Percent error, 100*(Cat-|An|)/(Cat+|An|)  =   0.00
                               Iterations  =  12
                                  Total H  = 1.110624e+02
                                  Total O  = 5.550622e+01

----------------------------Distribution of species----------------------------

                                               Log       Log       Log    mole V
   Species          Molality    Activity  Molality  Activity     Gamma   cm3/mol

   H+              3.568e-06   3.054e-06    -5.448    -5.515    -0.068      0.00
   OH-             1.822e-09   1.483e-09    -8.739    -8.829    -0.089     -4.41
   H2O             5.551e+01   9.983e-01     1.744    -0.001     0.000     18.03
Amm           5.000e-02
   AmmH+           5.000e-02   4.019e-02    -1.301    -1.396    -0.095     17.72
   Amm             3.567e-06   3.608e-06    -5.448    -5.443     0.005     24.21
Cl            5.000e-02
   Cl-             5.000e-02   4.085e-02    -1.301    -1.389    -0.088     17.84
H(0)          0.000e+00
   H2              0.000e+00   0.000e+00   -40.292   -40.287     0.005     28.62
O(0)          1.409e-15
   O2              7.043e-16   7.125e-16   -15.152   -15.147     0.005     29.51

------------------------------Saturation indices-------------------------------

	Phase               SI   log IAP   log K(288 K,   1 atm)

	Amm(g)           -7.46     -5.44    2.01  Amm
	H2(g)           -37.21    -40.29   -3.07  H2
	H2O(g)           -1.77     -0.00    1.77  H2O
	O2(g)           -12.33    -15.15   -2.81  O2


Reaction step 5.

Using solution 1.	
Using temperature 1.	
Using pressure 1.	
Using reaction 1.	

Reaction 1.	

	  5.006e-02 moles of the following reaction have been added:

	                 Relative
	Reactant            moles

	AmmHCl               1.00000

	                 Relative
	Element             moles
	Amm                  1.00000
	Cl                   1.00000
	H                    1.00000

-----------------------------Solution composition------------------------------

	Elements           Molality       Moles

	Amm               5.006e-02   5.006e-02
	Cl                5.006e-02   5.006e-02

----------------------------Description of solution----------------------------

                                       pH  =   5.515      Charge balance
                                       pe  =   0.427      Adjusted to redox equilibrium
       Specific Conductance (uS/cm, 15 oC) = 5202
                          Density (g/cm3)  =   0.99999
                               Volume (L)  =   1.00273
                        Activity of water  =   0.998
                           Ionic strength  =   5.006e-02
                       Mass of water (kg)  =   1.000e+00
                 Total alkalinity (eq/kg)  =   2.986e-16
                    Total carbon (mol/kg)  =   0.000e+00
                       Total CO2 (mol/kg)  =   0.000e+00
                      Temperature (deg C)  =  15.00
                  Electrical balance (eq)  =   1.034e-13
 Percent error, 100*(Cat-|An|)/(Cat+|An|)  =   0.00
                               Iterations  =  11
                                  Total H  = 1.110625e+02
                                  Total O  = 5.550622e+01

----------------------------Distribution of species----------------------------

                                               Log       Log       Log    mole V
   Species          Molality    Activity  Molality  Activity     Gamma   cm3/mol

   H+              3.570e-06   3.055e-06    -5.447    -5.515    -0.068      0.00
   OH-             1.821e-09   1.482e-09    -8.740    -8.829    -0.089     -4.41
   H2O             5.551e+01   9.983e-01     1.744    -0.001     0.000     18.03
Amm           5.006e-02
   AmmH+           5.006e-02   4.023e-02    -1.301    -1.395    -0.095     17.72
   Amm             3.569e-06   3.610e-06    -5.448    -5.443     0.005     24.21
Cl            5.006e-02
   Cl-             5.006e-02   4.089e-02    -1.301    -1.388    -0.088     17.84
H(0)          2.024e-15
   H2              1.012e-15   1.024e-15   -14.995   -14.990     0.005     28.62
O(0)          0.000e+00
   O2              0.000e+00   0.000e+00   -65.746   -65.741     0.005     29.51

------------------------------Saturation indices-------------------------------

	Phase               SI   log IAP   log K(288 K,   1 atm)

	Amm(g)           -7.46     -5.44    2.01  Amm
	H2(g)           -11.92    -14.99   -3.07  H2
	H2O(g)           -1.77     -0.00    1.77  H2O
	O2(g)           -62.93    -65.74   -2.81  O2


Reaction step 6.

Using solution 1.	
Using temperature 1.	
Using pressure 1.	
Using reaction 1.	

Reaction 1.	

	  7.000e-02 moles of the following reaction have been added:

	                 Relative
	Reactant            moles

	AmmHCl               1.00000

	                 Relative
	Element             moles
	Amm                  1.00000
	Cl                   1.00000
	H                    1.00000

-----------------------------Solution composition------------------------------

	Elements           Molality       Moles

	Amm               7.000e-02   7.000e-02
	Cl                7.000e-02   7.000e-02

----------------------------Description of solution----------------------------

                                       pH  =   5.454      Charge balance
                                       pe  =  13.233      Adjusted to redox equilibrium
       Specific Conductance (uS/cm, 15 oC) = 7144
                          Density (g/cm3)  =   1.00035
                               Volume (L)  =   1.00347
                        Activity of water  =   0.998
                           Ionic strength  =   7.000e-02
                       Mass of water (kg)  =   1.000e+00
                 Total alkalinity (eq/kg)  =   1.408e-14
                    Total carbon (mol/kg)  =   0.000e+00
                       Total CO2 (mol/kg)  =   0.000e+00
                      Temperature (deg C)  =  15.00
                  Electrical balance (eq)  =   4.607e-12
 Percent error, 100*(Cat-|An|)/(Cat+|An|)  =   0.00
                               Iterations  =  12
                                  Total H  = 1.110824e+02
                                  Total O  = 5.550622e+01

----------------------------Distribution of species----------------------------

                                               Log       Log       Log    mole V
   Species          Molality    Activity  Molality  Activity     Gamma   cm3/mol

   H+              4.177e-06   3.517e-06    -5.379    -5.454    -0.075      0.00
   OH-             1.627e-09   1.287e-09    -8.789    -8.891    -0.102     -4.35
   H2O             5.551e+01   9.976e-01     1.744    -0.001     0.000     18.03
Amm           7.000e-02
   AmmH+           7.000e-02   5.444e-02    -1.155    -1.264    -0.109     17.74
   Amm             4.175e-06   4.243e-06    -5.379    -5.372     0.007     24.21
Cl            7.000e-02
   Cl-             7.000e-02   5.562e-02    -1.155    -1.255    -0.100     17.88
H(0)          0.000e+00
   H2              0.000e+00   0.000e+00   -40.487   -40.480     0.007     28.62
O(0)          3.403e-15
   O2              1.702e-15   1.729e-15   -14.769   -14.762     0.007     29.51

------------------------------Saturation indices-------------------------------

	Phase               SI   log IAP   log K(288 K,   1 atm)

	Amm(g)           -7.39     -5.37    2.01  Amm
	H2(g)           -37.41    -40.48   -3.07  H2
	H2O(g)           -1.77     -0.00    1.77  H2O
	O2(g)           -11.95    -14.76   -2.81  O2


Reaction step 7.

Using solution 1.	
Using temperature 1.	
Using pressure 1.	
Using reaction 1.	

Reaction 1.	

	  1.000e-01 moles of the following reaction have been added:

	                 Relative
	Reactant            moles

	AmmHCl               1.00000

	                 Relative
	Element             moles
	Amm                  1.00000
	Cl                   1.00000
	H                    1.00000

-----------------------------Solution composition------------------------------

	Elements           Molality       Moles

	Amm               1.000e-01   1.000e-01
	Cl                1.000e-01   1.000e-01

----------------------------Description of solution----------------------------

                                       pH  =   5.390      Charge balance
                                       pe  =  13.278      Adjusted to redox equilibrium
       Specific Conductance (uS/cm, 15 oC) = 9992
                          Density (g/cm3)  =   1.00087
                               Volume (L)  =   1.00457
                        Activity of water  =   0.997
                           Ionic strength  =   1.000e-01
                       Mass of water (kg)  =   1.000e+00
                 Total alkalinity (eq/kg)  =   5.727e-13
                    Total carbon (mol/kg)  =   0.000e+00
                       Total CO2 (mol/kg)  =   0.000e+00
                      Temperature (deg C)  =  15.00
                  Electrical balance (eq)  =   7.286e-11
 Percent error, 100*(Cat-|An|)/(Cat+|An|)  =   0.00
                               Iterations  =  12
                                  Total H  = 1.111124e+02
                                  Total O  = 5.550622e+01

----------------------------Distribution of species----------------------------

                                               Log       Log       Log    mole V
   Species          Molality    Activity  Molality  Activity     Gamma   cm3/mol

   H+              4.921e-06   4.073e-06    -5.308    -5.390    -0.082      0.00
   OH-             1.452e-09   1.110e-09    -8.838    -8.955    -0.116     -4.27
   H2O             5.551e+01   9.966e-01     1.744    -0.001     0.000     18.03
Amm           1.000e-01
   AmmH+           1.000e-01   7.480e-02    -1.000    -1.126    -0.126     17.78
   Amm             4.920e-06   5.035e-06    -5.308    -5.298     0.010     24.21
Cl            1.000e-01
   Cl-             1.000e-01   7.697e-02    -1.000    -1.114    -0.114     17.92
H(0)          0.000e+00
   H2              0.000e+00   0.000e+00   -40.451   -40.441     0.010     28.62
O(0)          2.826e-15
   O2              1.413e-15   1.446e-15   -14.850   -14.840     0.010     29.51

------------------------------Saturation indices-------------------------------

	Phase               SI   log IAP   log K(288 K,   1 atm)

	Amm(g)           -7.31     -5.30    2.01  Amm
	H2(g)           -37.37    -40.44   -3.07  H2
	H2O(g)           -1.77     -0.00    1.77  H2O
	O2(g)           -12.03    -14.84   -2.81  O2


Reaction step 8.

Using solution 1.	
Using temperature 1.	
Using pressure 1.	
Using reaction 1.	

Reaction 1.	

	  1.001e-01 moles of the following reaction have been added:

	                 Relative
	Reactant            moles

	AmmHCl               1.00000

	                 Relative
	Element             moles
	Amm                  1.00000
	Cl                   1.00000
	H                    1.00000

-----------------------------Solution composition------------------------------

	Elements           Molality       Moles

	Amm               1.001e-01   1.001e-01
	Cl                1.001e-01   1.001e-01

----------------------------Description of solution----------------------------

                                       pH  =   5.390      Charge balance
                                       pe  =  13.301      Adjusted to redox equilibrium
       Specific Conductance (uS/cm, 15 oC) = 10004
                          Density (g/cm3)  =   1.00087
                               Volume (L)  =   1.00458
                        Activity of water  =   0.997
                           Ionic strength  =   1.001e-01
                       Mass of water (kg)  =   1.000e+00
                 Total alkalinity (eq/kg)  =   5.822e-13
                    Total carbon (mol/kg)  =   0.000e+00
                       Total CO2 (mol/kg)  =   0.000e+00
                      Temperature (deg C)  =  15.00
                  Electrical balance (eq)  =   7.371e-11
 Percent error, 100*(Cat-|An|)/(Cat+|An|)  =   0.00
                               Iterations  =  12
                                  Total H  = 1.111126e+02
                                  Total O  = 5.550622e+01

----------------------------Distribution of species----------------------------

                                               Log       Log       Log    mole V
   Species          Molality    Activity  Molality  Activity     Gamma   cm3/mol

   H+              4.924e-06   4.075e-06    -5.308    -5.390    -0.082      0.00
   OH-             1.451e-09   1.109e-09    -8.838    -8.955    -0.117     -4.27
   H2O             5.551e+01   9.966e-01     1.744    -0.001     0.000     18.03
Amm           1.001e-01
   AmmH+           1.001e-01   7.489e-02    -0.999    -1.126    -0.126     17.78
   Amm             4.923e-06   5.038e-06    -5.308    -5.298     0.010     24.21
Cl            1.001e-01
   Cl-             1.001e-01   7.706e-02    -0.999    -1.113    -0.114     17.92
H(0)          0.000e+00
   H2              0.000e+00   0.000e+00   -40.498   -40.488     0.010     28.62
O(0)          3.505e-15
   O2              1.752e-15   1.793e-15   -14.756   -14.746     0.010     29.51

------------------------------Saturation indices-------------------------------

	Phase               SI   log IAP   log K(288 K,   1 atm)

	Amm(g)           -7.31     -5.30    2.01  Amm
	H2(g)           -37.42    -40.49   -3.07  H2
	H2O(g)           -1.77     -0.00    1.77  H2O
	O2(g)           -11.93    -14.75   -2.81  O2


Reaction step 9.

Using solution 1.	
Using temperature 1.	
Using pressure 1.	
Using reaction 1.	

Reaction 1.	

	  2.000e-01 moles of the following reaction have been added:

	                 Relative
	Reactant            moles

	AmmHCl               1.00000

	                 Relative
	Element             moles
	Amm                  1.00000
	Cl                   1.00000
	H                    1.00000

-----------------------------Solution composition------------------------------

	Elements           Molality       Moles

	Amm               2.000e-01   2.000e-01
	Cl                2.000e-01   2.000e-01

----------------------------Description of solution----------------------------

                                       pH  =   5.271      Charge balance
                                       pe  =   0.589      Adjusted to redox equilibrium
       Specific Conductance (uS/cm, 15 oC) = 19072
                          Density (g/cm3)  =   1.00259
                               Volume (L)  =   1.00828
                        Activity of water  =   0.993
                           Ionic strength  =   2.000e-01
                       Mass of water (kg)  =   1.000e+00
                 Total alkalinity (eq/kg)  =   1.761e-17
                    Total carbon (mol/kg)  =   0.000e+00
                       Total CO2 (mol/kg)  =   0.000e+00
                      Temperature (deg C)  =  15.00
                  Electrical balance (eq)  =   5.139e-16
 Percent error, 100*(Cat-|An|)/(Cat+|An|)  =   0.00
                               Iterations  =  12
                                  Total H  = 1.112124e+02
                                  Total O  = 5.550622e+01

----------------------------Distribution of species----------------------------

                                               Log       Log       Log    mole V
   Species          Molality    Activity  Molality  Activity     Gamma   cm3/mol

   H+              6.696e-06   5.357e-06    -5.174    -5.271    -0.097      0.00
   OH-             1.184e-09   8.411e-10    -8.927    -9.075    -0.148     -4.05
   H2O             5.551e+01   9.932e-01     1.744    -0.003     0.000     18.03
Amm           2.000e-01
   AmmH+           2.000e-01   1.370e-01    -0.699    -0.863    -0.164     17.86
   Amm             6.695e-06   7.010e-06    -5.174    -5.154     0.020     24.21
Cl            2.000e-01
   Cl-             2.000e-01   1.438e-01    -0.699    -0.842    -0.143     18.03
H(0)          2.860e-15
   H2              1.430e-15   1.497e-15   -14.845   -14.825     0.020     28.62
O(0)          0.000e+00
   O2              0.000e+00   0.000e+00   -66.096   -66.076     0.020     29.51

------------------------------Saturation indices-------------------------------

	Phase               SI   log IAP   log K(288 K,   1 atm)

	Amm(g)           -7.17     -5.15    2.01  Amm
	H2(g)           -11.75    -14.82   -3.07  H2
	H2O(g)           -1.77     -0.00    1.77  H2O
	O2(g)           -63.26    -66.08   -2.81  O2


Reaction step 10.

Using solution 1.	
Using temperature 1.	
Using pressure 1.	
Using reaction 1.	

Reaction 1.	

	  2.003e-01 moles of the following reaction have been added:

	                 Relative
	Reactant            moles

	AmmHCl               1.00000

	                 Relative
	Element             moles
	Amm                  1.00000
	Cl                   1.00000
	H                    1.00000

-----------------------------Solution composition------------------------------

	Elements           Molality       Moles

	Amm               2.003e-01   2.003e-01
	Cl                2.003e-01   2.003e-01

----------------------------Description of solution----------------------------

                                       pH  =   5.271      Charge balance
                                       pe  =   1.262      Adjusted to redox equilibrium
       Specific Conductance (uS/cm, 15 oC) = 19095
                          Density (g/cm3)  =   1.00259
                               Volume (L)  =   1.00829
                        Activity of water  =   0.993
                           Ionic strength  =   2.003e-01
                       Mass of water (kg)  =   1.000e+00
                 Total alkalinity (eq/kg)  =   6.673e-14
                    Total carbon (mol/kg)  =   0.000e+00
                       Total CO2 (mol/kg)  =   0.000e+00
                      Temperature (deg C)  =  15.00
                  Electrical balance (eq)  =   1.832e-11
 Percent error, 100*(Cat-|An|)/(Cat+|An|)  =   0.00
                               Iterations  =  11
                                  Total H  = 1.112127e+02
                                  Total O  = 5.550622e+01

----------------------------Distribution of species----------------------------

                                               Log       Log       Log    mole V
   Species          Molality    Activity  Molality  Activity     Gamma   cm3/mol

   H+              6.700e-06   5.360e-06    -5.174    -5.271    -0.097      0.00
   OH-             1.183e-09   8.406e-10    -8.927    -9.075    -0.148     -4.05
   H2O             5.551e+01   9.932e-01     1.744    -0.003     0.000     18.03
Amm           2.003e-01
   AmmH+           2.003e-01   1.371e-01    -0.698    -0.863    -0.164     17.86
   Amm             6.698e-06   7.015e-06    -5.174    -5.154     0.020     24.21
Cl            2.003e-01
   Cl-             2.003e-01   1.440e-01    -0.698    -0.842    -0.143     18.04
H(0)          1.288e-16
   H2              6.439e-17   6.742e-17   -16.191   -16.171     0.020     28.62
O(0)          0.000e+00
   O2              0.000e+00   0.000e+00   -63.403   -63.383     0.020     29.51

------------------------------Saturation indices-------------------------------

	Phase               SI   log IAP   log K(288 K,   1 atm)

	Amm(g)           -7.17     -5.15    2.01  Amm
	H2(g)           -13.10    -16.17   -3.07  H2
	H2O(g)           -1.77     -0.00    1.77  H2O
	O2(g)           -60.57    -63.38   -2.81  O2


Reaction step 11.

Using solution 1.	
Using temperature 1.	
Using pressure 1.	
Using reaction 1.	

Reaction 1.	

	  3.000e-01 moles of the following reaction have been added:

	                 Relative
	Reactant            moles

	AmmHCl               1.00000

	                 Relative
	Element             moles
	Amm                  1.00000
	Cl                   1.00000
	H                    1.00000

-----------------------------Solution composition------------------------------

	Elements           Molality       Moles

	Amm               3.000e-01   3.000e-01
	Cl                3.000e-01   3.000e-01

----------------------------Description of solution----------------------------

                                       pH  =   5.205      Charge balance
                                       pe  =  13.393      Adjusted to redox equilibrium
       Specific Conductance (uS/cm, 15 oC) = 27760
                          Density (g/cm3)  =   1.00427
                               Volume (L)  =   1.01202
                        Activity of water  =   0.990
                           Ionic strength  =   3.000e-01
                       Mass of water (kg)  =   1.000e+00
                 Total alkalinity (eq/kg)  =   1.781e-16
                    Total carbon (mol/kg)  =   0.000e+00
                       Total CO2 (mol/kg)  =   0.000e+00
                      Temperature (deg C)  =  15.00
                  Electrical balance (eq)  =   1.180e-13
 Percent error, 100*(Cat-|An|)/(Cat+|An|)  =   0.00
                               Iterations  =  13
                                  Total H  = 1.113124e+02
                                  Total O  = 5.550622e+01

----------------------------Distribution of species----------------------------

                                               Log       Log       Log    mole V
   Species          Molality    Activity  Molality  Activity     Gamma   cm3/mol

   H+              7.948e-06   6.238e-06    -5.100    -5.205    -0.105      0.00
   OH-             1.062e-09   7.198e-10    -8.974    -9.143    -0.169     -3.86
   H2O             5.551e+01   9.898e-01     1.744    -0.004     0.000     18.03
Amm           3.000e-01
   AmmH+           3.000e-01   1.938e-01    -0.523    -0.713    -0.190     17.92
   Amm             7.947e-06   8.515e-06    -5.100    -5.070     0.030     24.21
Cl            3.000e-01
   Cl-             3.000e-01   2.069e-01    -0.523    -0.684    -0.161     18.12
H(0)          0.000e+00
   H2              0.000e+00   0.000e+00   -40.330   -40.300     0.030     28.62
O(0)          1.393e-15
   O2              6.963e-16   7.461e-16   -15.157   -15.127     0.030     29.51

------------------------------Saturation indices-------------------------------

	Phase               SI   log IAP   log K(288 K,   1 atm)

	Amm(g)           -7.08     -5.07    2.01  Amm
	H2(g)           -37.23    -40.30   -3.07  H2
	H2O(g)           -1.77     -0.00    1.77  H2O
	O2(g)           -12.31    -15.13   -2.81  O2


Reaction step 12.

Using solution 1.	
Using temperature 1.	
Using pressure 1.	
Using reaction 1.	

Reaction 1.	

	  5.000e-01 moles of the following reaction have been added:

	                 Relative
	Reactant            moles

	AmmHCl               1.00000

	                 Relative
	Element             moles
	Amm                  1.00000
	Cl                   1.00000
	H                    1.00000

-----------------------------Solution composition------------------------------

	Elements           Molality       Moles

	Amm               5.000e-01   5.000e-01
	Cl                5.000e-01   5.000e-01

----------------------------Description of solution----------------------------

                                       pH  =   5.127      Charge balance
                                       pe  =   1.260      Adjusted to redox equilibrium
       Specific Conductance (uS/cm, 15 oC) = 42286
                          Density (g/cm3)  =   1.00755
                               Volume (L)  =   1.01954
                        Activity of water  =   0.983
                           Ionic strength  =   5.000e-01
                       Mass of water (kg)  =   1.000e+00
                 Total alkalinity (eq/kg)  =   3.114e-14
                    Total carbon (mol/kg)  =   0.000e+00
                       Total CO2 (mol/kg)  =   0.000e+00
                      Temperature (deg C)  =  15.00
                  Electrical balance (eq)  =   1.253e-11
 Percent error, 100*(Cat-|An|)/(Cat+|An|)  =   0.00
                               Iterations  =  11
                                  Total H  = 1.115124e+02
                                  Total O  = 5.550622e+01

----------------------------Distribution of species----------------------------

                                               Log       Log       Log    mole V
   Species          Molality    Activity  Molality  Activity     Gamma   cm3/mol

   H+              9.742e-06   7.473e-06    -5.011    -5.127    -0.115      0.00
   OH-             9.373e-10   5.967e-10    -9.028    -9.224    -0.196     -3.50
   H2O             5.551e+01   9.830e-01     1.744    -0.007     0.000     18.03
Amm           5.000e-01
   AmmH+           5.000e-01   2.979e-01    -0.301    -0.526    -0.225     18.02
   Amm             9.741e-06   1.093e-05    -5.011    -4.961     0.050     24.21
Cl            5.000e-01
   Cl-             5.000e-01   3.270e-01    -0.301    -0.485    -0.184     18.26
H(0)          2.355e-16
   H2              1.178e-16   1.321e-16   -15.929   -15.879     0.050     28.62
O(0)          0.000e+00
   O2              0.000e+00   0.000e+00   -64.026   -63.976     0.050     29.51

------------------------------Saturation indices-------------------------------

	Phase               SI   log IAP   log K(288 K,   1 atm)

	Amm(g)           -6.97     -4.96    2.01  Amm
	H2(g)           -12.81    -15.88   -3.07  H2
	H2O(g)           -1.78     -0.01    1.77  H2O
	O2(g)           -61.16    -63.98   -2.81  O2


Reaction step 13.

Using solution 1.	
Using temperature 1.	
Using pressure 1.	
Using reaction 1.	

Reaction 1.	

	  5.007e-01 moles of the following reaction have been added:

	                 Relative
	Reactant            moles

	AmmHCl               1.00000

	                 Relative
	Element             moles
	Amm                  1.00000
	Cl                   1.00000
	H                    1.00000

-----------------------------Solution composition------------------------------

	Elements           Molality       Moles

	Amm               5.006e-01   5.007e-01
	Cl                5.006e-01   5.007e-01

----------------------------Description of solution----------------------------

                                       pH  =   5.126      Charge balance
                                       pe  =  13.575      Adjusted to redox equilibrium
       Specific Conductance (uS/cm, 15 oC) = 42326
                          Density (g/cm3)  =   1.00756
                               Volume (L)  =   1.01957
                        Activity of water  =   0.983
                           Ionic strength  =   5.007e-01
                       Mass of water (kg)  =   1.000e+00
                 Total alkalinity (eq/kg)  =   3.895e-14
                    Total carbon (mol/kg)  =   0.000e+00
                       Total CO2 (mol/kg)  =   0.000e+00
                      Temperature (deg C)  =  15.00
                  Electrical balance (eq)  =   1.468e-11
 Percent error, 100*(Cat-|An|)/(Cat+|An|)  =   0.00
                               Iterations  =  13
                                  Total H  = 1.115131e+02
                                  Total O  = 5.550622e+01

----------------------------Distribution of species----------------------------

                                               Log       Log       Log    mole V
   Species          Molality    Activity  Molality  Activity     Gamma   cm3/mol

   H+              9.747e-06   7.476e-06    -5.011    -5.126    -0.115      0.00
   OH-             9.370e-10   5.965e-10    -9.028    -9.224    -0.196     -3.50
   H2O             5.551e+01   9.830e-01     1.744    -0.007     0.000     18.03
Amm           5.006e-01
   AmmH+           5.006e-01   2.983e-01    -0.300    -0.525    -0.225     18.02
   Amm             9.746e-06   1.094e-05    -5.011    -4.961     0.050     24.21
Cl            5.006e-01
   Cl-             5.006e-01   3.274e-01    -0.300    -0.485    -0.184     18.26
H(0)          0.000e+00
   H2              0.000e+00   0.000e+00   -40.559   -40.508     0.050     28.62
O(0)          3.418e-15
   O2              1.709e-15   1.918e-15   -14.767   -14.717     0.050     29.51

------------------------------Saturation indices-------------------------------

	Phase               SI   log IAP   log K(288 K,   1 atm)

	Amm(g)           -6.97     -4.96    2.01  Amm
	H2(g)           -37.44    -40.51   -3.07  H2
	H2O(g)           -1.78     -0.01    1.77  H2O
	O2(g)           -11.90    -14.72   -2.81  O2


Reaction step 14.

Using solution 1.	
Using temperature 1.	
Using pressure 1.	
Using reaction 1.	

Reaction 1.	

	  1.000e+00 moles of the following reaction have been added:

	                 Relative
	Reactant            moles

	AmmHCl               1.00000

	                 Relative
	Element             moles
	Amm                  1.00000
	Cl                   1.00000
	H                    1.00000

-----------------------------Solution composition------------------------------

	Elements           Molality       Moles

	Amm               1.000e+00   1.000e+00
	Cl                1.000e+00   1.000e+00

----------------------------Description of solution----------------------------

                                       pH  =   5.033      Charge balance
                                       pe  =   1.335      Adjusted to redox equilibrium
       Specific Conductance (uS/cm, 15 oC) = 67421
                          Density (g/cm3)  =   1.01527
                               Volume (L)  =   1.03861
                        Activity of water  =   0.966
                           Ionic strength  =   1.000e+00
                       Mass of water (kg)  =   1.000e+00
                 Total alkalinity (eq/kg)  =  -4.067e-17
                    Total carbon (mol/kg)  =   0.000e+00
                       Total CO2 (mol/kg)  =   0.000e+00
                      Temperature (deg C)  =  15.00
                  Electrical balance (eq)  =   1.694e-14
 Percent error, 100*(Cat-|An|)/(Cat+|An|)  =   0.00
                               Iterations  =  23
                                  Total H  = 1.120124e+02
                                  Total O  = 5.550622e+01

----------------------------Distribution of species----------------------------

                                               Log       Log       Log    mole V
   Species          Molality    Activity  Molality  Activity     Gamma   cm3/mol

   H+              1.243e-05   9.275e-06    -4.905    -5.033    -0.127      0.00
   OH-             8.097e-10   4.725e-10    -9.092    -9.326    -0.234     -2.70
   H2O             5.551e+01   9.660e-01     1.744    -0.015     0.000     18.03
Amm           1.000e+00
   AmmH+           1.000e+00   5.296e-01    -0.000    -0.276    -0.276     18.20
   Amm             1.243e-05   1.565e-05    -4.905    -4.805     0.100     24.21
Cl            1.000e+00
   Cl-             1.000e+00   6.132e-01    -0.000    -0.212    -0.212     18.51
H(0)          2.291e-16
   H2              1.146e-16   1.442e-16   -15.941   -15.841     0.100     28.62
O(0)          0.000e+00
   O2              0.000e+00   0.000e+00   -64.167   -64.067     0.100     29.51

------------------------------Saturation indices-------------------------------

	Phase               SI   log IAP   log K(288 K,   1 atm)

	Amm(g)           -6.82     -4.81    2.01  Amm
	H2(g)           -12.77    -15.84   -3.07  H2
	H2O(g)           -1.78     -0.02    1.77  H2O
	O2(g)           -61.26    -64.07   -2.81  O2


Reaction step 15.

Using solution 1.	
Using temperature 1.	
Using pressure 1.	
Using reaction 1.	

Reaction 1.	

	  1.500e+00 moles of the following reaction have been added:

	                 Relative
	Reactant            moles

	AmmHCl               1.00000

	                 Relative
	Element             moles
	Amm                  1.00000
	Cl                   1.00000
	H                    1.00000

-----------------------------Solution composition------------------------------

	Elements           Molality       Moles

	Amm               1.500e+00   1.500e+00
	Cl                1.500e+00   1.500e+00

----------------------------Description of solution----------------------------

                                       pH  =   4.988      Charge balance
                                       pe  =   1.245      Adjusted to redox equilibrium
       Specific Conductance (uS/cm, 15 oC) = 84199
                          Density (g/cm3)  =   1.02242
                               Volume (L)  =   1.05798
                        Activity of water  =   0.949
                           Ionic strength  =   1.500e+00
                       Mass of water (kg)  =   1.000e+00
                 Total alkalinity (eq/kg)  =   3.010e-15
                    Total carbon (mol/kg)  =   0.000e+00
                       Total CO2 (mol/kg)  =   0.000e+00
                      Temperature (deg C)  =  15.00
                  Electrical balance (eq)  =   2.734e-12
 Percent error, 100*(Cat-|An|)/(Cat+|An|)  =   0.00
                               Iterations  =  16
                                  Total H  = 1.125124e+02
                                  Total O  = 5.550622e+01

----------------------------Distribution of species----------------------------

                                               Log       Log       Log    mole V
   Species          Molality    Activity  Molality  Activity     Gamma   cm3/mol

   H+              1.397e-05   1.027e-05    -4.855    -4.988    -0.133      0.00
   OH-             7.553e-10   4.190e-10    -9.122    -9.378    -0.256     -1.96
   H2O             5.551e+01   9.490e-01     1.744    -0.023     0.000     18.03
Amm           1.500e+00
   AmmH+           1.500e+00   7.396e-01     0.176    -0.131    -0.307     18.36
   Amm             1.397e-05   1.973e-05    -4.855    -4.705     0.150     24.21
Cl            1.500e+00
   Cl-             1.500e+00   8.936e-01     0.176    -0.049    -0.225     18.71
H(0)          3.796e-16
   H2              1.898e-16   2.681e-16   -15.722   -15.572     0.150     28.62
O(0)          0.000e+00
   O2              0.000e+00   0.000e+00   -64.771   -64.621     0.150     29.51

------------------------------Saturation indices-------------------------------

	Phase               SI   log IAP   log K(288 K,   1 atm)

	Amm(g)           -6.72     -4.70    2.01  Amm
	H2(g)           -12.50    -15.57   -3.07  H2
	H2O(g)           -1.79     -0.02    1.77  H2O
	O2(g)           -61.81    -64.62   -2.81  O2


Reaction step 16.

[...]
                       Total CO2 (mol/kg)  =   0.000e+00
                      Temperature (deg C)  = 100.00
                  Electrical balance (eq)  =   1.153e-12
 Percent error, 100*(Cat-|An|)/(Cat+|An|)  =   0.00
                               Iterations  =  16
                                  Total H  = 1.182825e+02
                                  Total O  = 5.550622e+01

----------------------------Distribution of species----------------------------

                                               Log       Log       Log    mole V
   Species          Molality    Activity  Molality  Activity     Gamma   cm3/mol

   H+              1.575e-04   1.056e-04    -3.803    -3.977    -0.174      0.00
   OH-             9.941e-09   4.120e-09    -8.003    -8.385    -0.383      7.39
   H2O             5.551e+01   7.528e-01     1.744    -0.123     0.000     18.80
Amm           7.270e+00
   AmmH+           7.270e+00   2.356e+00     0.862     0.372    -0.489     19.33
   Amm             1.575e-04   8.401e-04    -3.803    -3.076     0.727     25.33
Cl            7.270e+00
   Cl-             7.270e+00   4.104e+00     0.862     0.613    -0.248     20.14
H(0)          7.073e-15
   H2              3.536e-15   1.886e-14   -14.451   -13.724     0.727     28.57
O(0)          0.000e+00
   O2              0.000e+00   0.000e+00   -46.565   -45.838     0.727     33.90

------------------------------Saturation indices-------------------------------

	Phase               SI   log IAP   log K(373 K,   1 atm)

	Amm(g)           -3.68     -3.08    0.60  Amm
	H2(g)           -10.62    -13.72   -3.10  H2
	H2O(g)           -0.13     -0.12    0.00  H2O
	O2(g)           -42.72    -45.84   -3.11  O2


Reaction step 10.

Using solution 1.	
Using temperature 1.	
Using pressure 1.	
Using reaction 1.	

Reaction 1.	

	  8.012e+00 moles of the following reaction have been added:

	                 Relative
	Reactant            moles

	AmmHCl               1.00000

	                 Relative
	Element             moles
	Amm                  1.00000
	Cl                   1.00000
	H                    1.00000

-----------------------------Solution composition------------------------------

	Elements           Molality       Moles

	Amm               8.012e+00   8.012e+00
	Cl                8.012e+00   8.012e+00

----------------------------Description of solution----------------------------

                                       pH  =   3.997      Charge balance
                                       pe  =   1.299      Adjusted to redox equilibrium
       Specific Conductance (uS/cm, 100 oC) = 477424
                          Density (g/cm3)  =   1.04911
                               Volume (L)  =   1.36916
                        Activity of water  =   0.728
                           Ionic strength  =   8.012e+00
                       Mass of water (kg)  =   1.000e+00
                 Total alkalinity (eq/kg)  =   3.939e-15
                    Total carbon (mol/kg)  =   0.000e+00
                       Total CO2 (mol/kg)  =   0.000e+00
                      Temperature (deg C)  = 100.00
                  Electrical balance (eq)  =   4.180e-12
 Percent error, 100*(Cat-|An|)/(Cat+|An|)  =   0.00
                               Iterations  =  15
                                  Total H  = 1.190244e+02
                                  Total O  = 5.550622e+01

----------------------------Distribution of species----------------------------

                                               Log       Log       Log    mole V
   Species          Molality    Activity  Molality  Activity     Gamma   cm3/mol

   H+              1.508e-04   1.008e-04    -3.822    -3.997    -0.175      0.00
   OH-             1.016e-08   4.169e-09    -7.993    -8.380    -0.387      8.47
   H2O             5.551e+01   7.276e-01     1.744    -0.138     0.000     18.80
Amm           8.012e+00
   AmmH+           8.012e+00   2.555e+00     0.904     0.407    -0.496     19.42
   Amm             1.507e-04   9.537e-04    -3.822    -3.021     0.801     25.33
Cl            8.012e+00
   Cl-             8.012e+00   4.612e+00     0.904     0.664    -0.240     20.27
H(0)          3.155e-15
   H2              1.577e-15   9.980e-15   -14.802   -14.001     0.801     28.57
O(0)          0.000e+00
   O2              0.000e+00   0.000e+00   -46.116   -45.315     0.801     33.90

------------------------------Saturation indices-------------------------------

	Phase               SI   log IAP   log K(373 K,   1 atm)

	Amm(g)           -3.62     -3.02    0.60  Amm
	H2(g)           -10.90    -14.00   -3.10  H2
	H2O(g)           -0.14     -0.14    0.00  H2O
	O2(g)           -42.20    -45.32   -3.11  O2


Reaction step 11.

Using solution 1.	
Using temperature 1.	
Using pressure 1.	
Using reaction 1.	

Reaction 1.	

	  8.797e+00 moles of the following reaction have been added:

	                 Relative
	Reactant            moles

	AmmHCl               1.00000

	                 Relative
	Element             moles
	Amm                  1.00000
	Cl                   1.00000
	H                    1.00000

-----------------------------Solution composition------------------------------

	Elements           Molality       Moles

	Amm               8.797e+00   8.797e+00
	Cl                8.797e+00   8.797e+00

----------------------------Description of solution----------------------------

                                       pH  =   4.019      Charge balance
                                       pe  =   8.793      Adjusted to redox equilibrium
       Specific Conductance (uS/cm, 100 oC) = 505091
                          Density (g/cm3)  =   1.05432
                               Volume (L)  =   1.40298
                        Activity of water  =   0.701
                           Ionic strength  =   8.797e+00
                       Mass of water (kg)  =   1.000e+00
                 Total alkalinity (eq/kg)  =   1.120e-10
                    Total carbon (mol/kg)  =   0.000e+00
                       Total CO2 (mol/kg)  =   0.000e+00
                      Temperature (deg C)  = 100.00
                  Electrical balance (eq)  =   7.855e-09
 Percent error, 100*(Cat-|An|)/(Cat+|An|)  =   0.00
                               Iterations  =  21
                                  Total H  = 1.198098e+02
                                  Total O  = 5.550622e+01

----------------------------Distribution of species----------------------------

                                               Log       Log       Log    mole V
   Species          Molality    Activity  Molality  Activity     Gamma   cm3/mol

   H+              1.433e-04   9.567e-05    -3.844    -4.019    -0.176      0.00
   OH-             1.041e-08   4.232e-09    -7.982    -8.373    -0.391      9.60
   H2O             5.551e+01   7.009e-01     1.744    -0.154     0.000     18.80
Amm           8.797e+00
   AmmH+           8.797e+00   2.762e+00     0.944     0.441    -0.503     19.52
   Amm             1.433e-04   1.087e-03    -3.844    -2.964     0.880     25.33
Cl            8.797e+00
   Cl-             8.797e+00   5.176e+00     0.944     0.714    -0.230     20.39
H(0)          2.444e-30
   H2              1.222e-30   9.263e-30   -29.913   -29.033     0.880     28.57
O(0)          1.376e-16
   O2              6.878e-17   5.215e-16   -16.163   -15.283     0.880     33.90

------------------------------Saturation indices-------------------------------

	Phase               SI   log IAP   log K(373 K,   1 atm)

	Amm(g)           -3.57     -2.96    0.60  Amm
	H2(g)           -25.93    -29.03   -3.10  H2
	H2O(g)           -0.16     -0.15    0.00  H2O
	O2(g)           -12.17    -15.28   -3.11  O2


Reaction step 12.

Using solution 1.	
Using temperature 1.	
Using pressure 1.	
Using reaction 1.	

Reaction 1.	

	  9.630e+00 moles of the following reaction have been added:

	                 Relative
	Reactant            moles

	AmmHCl               1.00000

	                 Relative
	Element             moles
	Amm                  1.00000
	Cl                   1.00000
	H                    1.00000

-----------------------------Solution composition------------------------------

	Elements           Molality       Moles

	Amm               9.630e+00   9.630e+00
	Cl                9.630e+00   9.630e+00

----------------------------Description of solution----------------------------

                                       pH  =   4.045      Charge balance
                                       pe  =   9.088      Adjusted to redox equilibrium
       Specific Conductance (uS/cm, 100 oC) = 540673
                          Density (g/cm3)  =   1.05941
                               Volume (L)  =   1.43907
                        Activity of water  =   0.673
                           Ionic strength  =   9.630e+00
                       Mass of water (kg)  =   1.000e+00
                 Total alkalinity (eq/kg)  =   1.494e-13
                    Total carbon (mol/kg)  =   0.000e+00
                       Total CO2 (mol/kg)  =   0.000e+00
                      Temperature (deg C)  = 100.00
                  Electrical balance (eq)  =   8.355e-11
 Percent error, 100*(Cat-|An|)/(Cat+|An|)  =   0.00
                               Iterations  =  12
                                  Total H  = 1.206429e+02
                                  Total O  = 5.550622e+01

----------------------------Distribution of species----------------------------

                                               Log       Log       Log    mole V
   Species          Molality    Activity  Molality  Activity     Gamma   cm3/mol

   H+              1.354e-04   9.019e-05    -3.868    -4.045    -0.176      0.00
   OH-             1.069e-08   4.308e-09    -7.971    -8.366    -0.395     10.79
   H2O             5.551e+01   6.726e-01     1.744    -0.172     0.000     18.80
Amm           9.630e+00
   AmmH+           9.630e+00   2.980e+00     0.984     0.474    -0.509     19.62
   Amm             1.354e-04   1.243e-03    -3.868    -2.905     0.963     25.33
Cl            9.630e+00
   Cl-             9.630e+00   5.805e+00     0.984     0.764    -0.220     20.51
H(0)          4.603e-31
   H2              2.302e-31   2.114e-30   -30.638   -29.675     0.963     28.57
O(0)          2.008e-15
   O2              1.004e-15   9.221e-15   -14.998   -14.035     0.963     33.90

------------------------------Saturation indices-------------------------------

	Phase               SI   log IAP   log K(373 K,   1 atm)

	Amm(g)           -3.51     -2.91    0.60  Amm
	H2(g)           -26.57    -29.67   -3.10  H2
	H2O(g)           -0.18     -0.17    0.00  H2O
	O2(g)           -10.92    -14.04   -3.11  O2


Reaction step 13.

Using solution 1.	
Using temperature 1.	
Using pressure 1.	
Using reaction 1.	

Reaction 1.	

	  1.052e+01 moles of the following reaction have been added:

	                 Relative
	Reactant            moles

	AmmHCl               1.00000

	                 Relative
	Element             moles
	Amm                  1.00000
	Cl                   1.00000
	H                    1.00000

-----------------------------Solution composition------------------------------

	Elements           Molality       Moles

	Amm               1.052e+01   1.052e+01
	Cl                1.052e+01   1.052e+01

----------------------------Description of solution----------------------------

                                       pH  =   4.073      Charge balance
                                       pe  =   9.159      Adjusted to redox equilibrium
       Specific Conductance (uS/cm, 100 oC) = 586722
                          Density (g/cm3)  =   1.06438
                               Volume (L)  =   1.47765
                        Activity of water  =   0.642
                           Ionic strength  =   1.052e+01
                       Mass of water (kg)  =   1.000e+00
                 Total alkalinity (eq/kg)  =   5.068e-13
                    Total carbon (mol/kg)  =   0.000e+00
                       Total CO2 (mol/kg)  =   0.000e+00
                      Temperature (deg C)  = 100.00
                  Electrical balance (eq)  =   1.971e-10
 Percent error, 100*(Cat-|An|)/(Cat+|An|)  =   0.00
                               Iterations  =  12
                                  Total H  = 1.215281e+02
                                  Total O  = 5.550622e+01

----------------------------Distribution of species----------------------------

                                               Log       Log       Log    mole V
   Species          Molality    Activity  Molality  Activity     Gamma   cm3/mol

   H+              1.270e-04   8.445e-05    -3.896    -4.073    -0.177      0.00
   OH-             1.100e-08   4.395e-09    -7.959    -8.357    -0.398     12.03
   H2O             5.551e+01   6.425e-01     1.744    -0.192     0.000     18.80
Amm           1.052e+01
   AmmH+           1.052e+01   3.208e+00     1.022     0.506    -0.516     19.73
   Amm             1.270e-04   1.430e-03    -3.896    -2.845     1.052     25.33
Cl            1.052e+01
   Cl-             1.052e+01   6.511e+00     1.022     0.814    -0.208     20.62
H(0)          2.378e-31
   H2              1.189e-31   1.339e-30   -30.925   -29.873     1.052     28.57
O(0)          3.725e-15
   O2              1.862e-15   2.097e-14   -14.730   -13.678     1.052     33.90

------------------------------Saturation indices-------------------------------

	Phase               SI   log IAP   log K(373 K,   1 atm)

	Amm(g)           -3.45     -2.84    0.60  Amm
	H2(g)           -26.77    -29.87   -3.10  H2
	H2O(g)           -0.20     -0.19    0.00  H2O
	O2(g)           -10.56    -13.68   -3.11  O2


Reaction step 14.

Using solution 1.	
Using temperature 1.	
Using pressure 1.	
Using reaction 1.	

Reaction 1.	

	  1.146e+01 moles of the following reaction have been added:

	                 Relative
	Reactant            moles

	AmmHCl               1.00000

	                 Relative
	Element             moles
	Amm                  1.00000
	Cl                   1.00000
	H                    1.00000

-----------------------------Solution composition------------------------------

	Elements           Molality       Moles

	Amm               1.146e+01   1.146e+01
	Cl                1.146e+01   1.146e+01

----------------------------Description of solution----------------------------

                                       pH  =   4.105      Charge balance
                                       pe  =   8.973      Adjusted to redox equilibrium
       Specific Conductance (uS/cm, 100 oC) = 646765
                          Density (g/cm3)  =   1.06921
                               Volume (L)  =   1.51897
                        Activity of water  =   0.610
                           Ionic strength  =   1.146e+01
                       Mass of water (kg)  =   1.000e+00
                 Total alkalinity (eq/kg)  =   7.232e-13
                    Total carbon (mol/kg)  =   0.000e+00
                       Total CO2 (mol/kg)  =   0.000e+00
                      Temperature (deg C)  = 100.00
                  Electrical balance (eq)  =   2.485e-10
 Percent error, 100*(Cat-|An|)/(Cat+|An|)  =   0.00
                               Iterations  =  12
                                  Total H  = 1.224703e+02
                                  Total O  = 5.550622e+01

----------------------------Distribution of species----------------------------

                                               Log       Log       Log    mole V
   Species          Molality    Activity  Molality  Activity     Gamma   cm3/mol

   H+              1.182e-04   7.851e-05    -3.927    -4.105    -0.178      0.00
   OH-             1.133e-08   4.492e-09    -7.946    -8.348    -0.402     13.34
   H2O             5.551e+01   6.104e-01     1.744    -0.214     0.000     18.80
Amm           1.146e+01
   AmmH+           1.146e+01   3.450e+00     1.059     0.538    -0.521     19.84
   Amm             1.182e-04   1.654e-03    -3.927    -2.782     1.146     25.33
Cl            1.146e+01
   Cl-             1.146e+01   7.306e+00     1.059     0.864    -0.195     20.72
H(0)          3.892e-31
   H2              1.946e-31   2.723e-30   -30.711   -29.565     1.146     28.57
O(0)          6.547e-16
   O2              3.273e-16   4.579e-15   -15.485   -14.339     1.146     33.90

------------------------------Saturation indices-------------------------------

	Phase               SI   log IAP   log K(373 K,   1 atm)

	Amm(g)           -3.38     -2.78    0.60  Amm
	H2(g)           -26.46    -29.57   -3.10  H2
	H2O(g)           -0.22     -0.21    0.00  H2O
	O2(g)           -11.22    -14.34   -3.11  O2


Reaction step 15.

Using solution 1.	
Using temperature 1.	
Using pressure 1.	
Using reaction 1.	

Reaction 1.	

	  1.246e+01 moles of the following reaction have been added:

	                 Relative
	Reactant            moles

	AmmHCl               1.00000

	                 Relative
	Element             moles
	Amm                  1.00000
	Cl                   1.00000
	H                    1.00000

-----------------------------Solution composition------------------------------

	Elements           Molality       Moles

	Amm               1.246e+01   1.246e+01
	Cl                1.246e+01   1.246e+01

----------------------------Description of solution----------------------------

                                       pH  =   4.140      Charge balance
                                       pe  =   0.804      Adjusted to redox equilibrium
       Specific Conductance (uS/cm, 100 oC) = 725834
                          Density (g/cm3)  =   1.07390
                               Volume (L)  =   1.56332
                        Activity of water  =   0.576
                           Ionic strength  =   1.246e+01
                       Mass of water (kg)  =   1.000e+00
                 Total alkalinity (eq/kg)  =   1.102e-09
                    Total carbon (mol/kg)  =   0.000e+00
                       Total CO2 (mol/kg)  =   0.000e+00
                      Temperature (deg C)  = 100.00
                  Electrical balance (eq)  =   3.281e-08
 Percent error, 100*(Cat-|An|)/(Cat+|An|)  =   0.00
                               Iterations  =  16
                                  Total H  = 1.234754e+02
                                  Total O  = 5.550622e+01

----------------------------Distribution of species----------------------------

                                               Log       Log       Log    mole V
   Species          Molality    Activity  Molality  Activity     Gamma   cm3/mol

   H+              1.092e-04   7.241e-05    -3.962    -4.140    -0.178      0.00
   OH-             1.169e-08   4.597e-09    -7.932    -8.338    -0.405     14.73
   H2O             5.551e+01   5.763e-01     1.744    -0.239     0.000     18.80
Amm           1.246e+01
   AmmH+           1.246e+01   3.704e+00     1.096     0.569    -0.527     19.95
   Amm             1.092e-04   1.925e-03    -3.962    -2.716     1.246     25.33
Cl            1.246e+01
   Cl-             1.246e+01   8.206e+00     1.096     0.914    -0.181     20.82
H(0)          5.714e-15
   H2              2.857e-15   5.038e-14   -14.544   -13.298     1.246     28.57
O(0)          0.000e+00
   O2              0.000e+00   0.000e+00   -48.170   -46.924     1.246     33.90

------------------------------Saturation indices-------------------------------

	Phase               SI   log IAP   log K(373 K,   1 atm)

	Amm(g)           -3.32     -2.72    0.60  Amm
	H2(g)           -10.20    -13.30   -3.10  H2
	H2O(g)           -0.24     -0.24    0.00  H2O
	O2(g)           -43.81    -46.92   -3.11  O2


------------------
End of simulation.
------------------

-------------------------------------
Reading input data for simulation 23.
-------------------------------------

------------------------------
End of Run after 0.13 Seconds.
------------------------------

