WARNING: Database file from DATABASE keyword is used; command line argument ignored.
   Input file: Vm_salt
  Output file: Vm_salt.out
Database file: ../database/Amm.dat

------------------
Reading data base.
------------------

	SOLUTION_MASTER_SPECIES
	SOLUTION_SPECIES
	PHASES
	EXCHANGE_MASTER_SPECIES
	EXCHANGE_SPECIES
	SURFACE_MASTER_SPECIES
	SURFACE_SPECIES
	RATES
	END
------------------------------------
Reading input data for simulation 1.
------------------------------------

	DATABASE ../database/Amm.dat
	SELECTED_OUTPUT 101
	    file                 Vm_salt_101.sel
	USER_PUNCH 101
	    headings Mu SC
	    start
	10 PUNCH STR_F$(MU, 20, 12)
	20 PUNCH STR_F$(SC, 20, 10)
	    end
	SOLUTION 1
	 pH 7 charge
	END
-------------------------------------------
Beginning of initial solution calculations.
-------------------------------------------

Initial solution 1.	

-----------------------------Solution composition------------------------------

	Elements           Molality       Moles

	Pure water     

----------------------------Description of solution----------------------------

                                       pH  =   6.997      Charge balance
                                       pe  =   4.000    
      Specific Conductance (µS/cm,  25°C)  = 0
                          Density (g/cm³)  =   0.99704
                               Volume (L)  =   1.00297
                        Viscosity (mPa s)  =   0.89002
                        Activity of water  =   1.000
                 Ionic strength (mol/kgw)  =   1.006e-07
                       Mass of water (kg)  =   1.000e+00
                 Total alkalinity (eq/kg)  =   3.040e-17
                         Temperature (°C)  =  25.00
                  Electrical balance (eq)  =  -3.040e-17
 Percent error, 100*(Cat-|An|)/(Cat+|An|)  =  -0.00
                               Iterations  =   2
                                  Total H  = 1.110124e+02
                                  Total O  = 5.550622e+01

----------------------------Distribution of species----------------------------

                                               Log       Log       Log    mole V
   Species          Molality    Activity  Molality  Activity     Gamma   cm³/mol

   OH-             1.006e-07   1.006e-07    -6.997    -6.997    -0.000     -4.14
   H+              1.006e-07   1.006e-07    -6.997    -6.997    -0.000      0.00
   H2O             5.551e+01   1.000e+00     1.744    -0.000     0.000     18.07
H(0)          1.433e-25
   H2              7.166e-26   7.166e-26   -25.145   -25.145     0.000     28.61
O(0)          0.000e+00
   O2              0.000e+00   0.000e+00   -42.090   -42.090     0.000     30.40

------------------------------Saturation indices-------------------------------

  Phase               SI** log IAP   log K(298 K,   1 atm)

  H2(g)           -22.04    -25.14   -3.10  H2
  H2O(g)           -1.50     -0.00    1.50  H2O
  O2(g)           -39.20    -42.09   -2.89  O2

**For a gas, SI = log10(fugacity). Fugacity = pressure * phi / 1 atm.
  For ideal gases, phi = 1.

------------------
End of simulation.
------------------

------------------------------------
Reading input data for simulation 2.
------------------------------------

	USE solution 1
	REACTION_TEMPERATURE
	 25.000000
	REACTION_PRESSURE
	 0.000000
	REACTION
	 HCl 1
	0 0.003345556 0.003509761 0.005804099 0.008152915  0.010050 0.010902557 0.019919104 0.020320 0.020722728 0.02917534 0.030010 0.039640309 0.040000 0.050500 0.057650 0.06183938 0.075390 0.079690 0.079931544 0.090713565 
	0.098980 0.100100 0.115900 0.124000 0.125650 0.138200 0.148360 0.148800 0.152170 0.198440 0.201350 0.217600 0.221790 0.230300 0.256600 0.258580 0.305100 0.317000 0.343670 0.376200 0.378892 0.378799 0.378888 0.400010 0.498090 0.564460 0.596830 0.608000 0.613160 0.634710 0.633689 0.696000 0.697270 0.793200 0.799170 0.892377 0.898500 0.900260 0.968600 0.968790 1.022200 1.154549 1.203100 1.276120 1.483900 1.618400 1.851100 1.954635 1.962320 2.095800 2.114800 2.195000 2.226783 2.264800 2.395500 2.457900 2.520000 2.764100 2.957400 3.014700 3.060917 3.191000 3.345673 3.852700 4.216778 4.216452 4.512961 4.631400 4.813464 4.813347 4.912400 5.116893 5.116862 5.316000 5.424050 5.423779 5.734175 5.734149 6.006400 6.048032 6.365700 6.625300 6.713663 6.734294 6.836000 6.963957 7.041466 7.372793 7.616000 7.708123 8.047887 8.391121 8.447000 8.739741 9.092376 9.294900 9.448106 9.810296
	USER_GRAPH
	 -headings HCl
	-axis_titles "(Ionic Strength)^0.5 / (mol/kg H2O)^0.5" "molar volume / (cm3/mol)"
	-axis_scale x_axis 0 3
	-axis_scale y_axis 14 32
	10 data 0, 18.03, 17.947, 17.955, 18.019, 18.003401, 18.053, 18.089, 18.151590, 18.104, 18.1, 18.144103, 18.128, 18.147104, 18.260570, 18.193491, 18.172, 18.291331, 18.251638, 18.221, 18.226, 18.293496, 18.360171, 18.172784, 18.401682, 18.425164, 18.400000, 18.375462, 18.421767, 18.420000, 18.441524, 18.551196, 18.351572, 18.520000, 18.528130, 18.509595, 18.540000, 18.580000, 18.569794, 18.630000, 18.620087, 18.644680, 18.706760, 18.620617, 18.639675, 18.709022, 18.752466, 18.771139, 18.739918, 18.796572, 18.809065, 18.800181, 18.824530, 18.848829, 18.872334, 18.907554, 18.920422, 18.929376, 18.966125, 18.966871, 18.949297, 18.997995, 19.038362, 19.041280, 19.127097, 19.158526, 19.205842, 19.278155, 19.266918, 19.279682, 19.347808, 19.347989, 19.369001, 19.338937, 19.385524, 19.408502, 19.421342, 19.382531, 19.461480, 19.475456, 19.547519, 19.560486, 19.604451, 19.618635, 19.722417, 19.824761, 19.823639, 19.863619, 19.868453, 19.915521, 19.922431, 19.912622, 19.978912, 19.972591, 20.022080, 20.004175, 20.065494, 20.064079, 20.049594, 20.081165, 20.113426, 20.155812, 20.162891, 20.205003, 20.202267, 20.233798, 20.229769, 20.244985, 20.285265, 20.285097, 20.325116, 20.361456, 20.402034, 20.376488, 20.436253, 20.473638, 20.464062, 20.509998, 20.547910,
	20 dim d(119)
	30 read d(1), d(2), d(3), d(4), d(5), d(6), d(7), d(8), d(9), d(10), d(11), d(12), d(13), d(14), d(15), d(16), d(17), d(18), d(19), d(20), d(21), d(22), d(23), d(24), d(25), d(26), d(27), d(28), d(29), d(30), d(31), d(32), d(33), d(34), d(35), d(36), d(37), d(38), d(39), d(40), d(41), d(42), d(43), d(44), d(45), d(46), d(47), d(48), d(49), d(50), d(51), d(52), d(53), d(54), d(55), d(56), d(57), d(58), d(59), d(60), d(61), d(62), d(63), d(64), d(65), d(66), d(67), d(68), d(69), d(70), d(71), d(72), d(73), d(74), d(75), d(76), d(77), d(78), d(79), d(80), d(81), d(82), d(83), d(84), d(85), d(86), d(87), d(88), d(89), d(90), d(91), d(92), d(93), d(94), d(95), d(96), d(97), d(98), d(99), d(100), d(101), d(102), d(103), d(104), d(105), d(106), d(107), d(108), d(109), d(110), d(111), d(112), d(113), d(114), d(115), d(116), d(117), d(118), d(119)
	40 if step_no = 1 then put(rho, 10)
	50 if step_no > 1 then Vmol = (1e3 + tot("Cl") * 36.461) / (tot("Cl") * rho) - 1e3 / (tot("Cl") * get(10))
	60 if step_no = 1 then dif = 0 else dif = Vmol - d(step_no)
	62 if tot("Cl") > 10 or tc > 200 then goto 150
	100 if step_no = 1 then goto 150
	102 Vmol = Vm("Cl-")
	110 plot_xy mu^0.5, d(step_no), symbol = Triangle, line_w = 0, color = Blue
	120 plot_xy mu^0.5, Vmol, symbol = None, color = Blue, line_width = 2
	122 if step_no > 3 then goto 150
	130 V0 = 18.02
	134 if step_no = 2 then plot_xy 0, V0, symbol = None, color = Blue, line_width = 2 else                        plot_xy 4, V0 + DH_Av * 4 * 0.5, symbol = None, color = Blue, line_width = 1
	150 end
	END
-----------------------------------------
Beginning of batch-reaction calculations.
-----------------------------------------

Reaction step 1.

Using solution 1.	
Using temperature 1.	
Using pressure 1.	
Using reaction 1.	

Reaction 1.	

	  0.000e+00 moles of the following reaction have been added:

	                 Relative
	Reactant            moles

	HCl                  1.00000

	                 Relative
	Element             moles
	Cl                   1.00000
	H                    1.00000

-----------------------------Solution composition------------------------------

	Elements           Molality       Moles

	Pure water     

----------------------------Description of solution----------------------------

                                       pH  =   6.997      Charge balance
                                       pe  =   4.000      Adjusted to redox equilibrium
      Specific Conductance (µS/cm,  25°C)  = 0
                          Density (g/cm³)  =   0.99700
                               Volume (L)  =   1.00301
                        Viscosity (mPa s)  =   0.89004
                        Activity of water  =   1.000
                 Ionic strength (mol/kgw)  =   1.006e-07
                       Mass of water (kg)  =   1.000e+00
                 Total alkalinity (eq/kg)  =   3.146e-17
                         Temperature (°C)  =  25.00
                           Pressure (atm)  =  0.03
                  Electrical balance (eq)  =  -3.146e-17
 Percent error, 100*(Cat-|An|)/(Cat+|An|)  =  -0.00
                               Iterations  =   0
                                  Total H  = 1.110124e+02
                                  Total O  = 5.550622e+01

----------------------------Distribution of species----------------------------

                                               Log       Log       Log    mole V
   Species          Molality    Activity  Molality  Activity     Gamma   cm³/mol

   OH-             1.006e-07   1.006e-07    -6.997    -6.997    -0.000     -4.14
   H+              1.006e-07   1.006e-07    -6.997    -6.997    -0.000      0.00
   H2O             5.551e+01   1.000e+00     1.744    -0.000     0.000     18.07
H(0)          1.433e-25
   H2              7.166e-26   7.166e-26   -25.145   -25.145     0.000     28.61
O(0)          0.000e+00
   O2              0.000e+00   0.000e+00   -42.090   -42.090     0.000     30.40

------------------------------Saturation indices-------------------------------

  Phase               SI** log IAP   log K(298 K,   0 atm)

  H2(g)           -22.04    -25.14   -3.10  H2
  H2O(g)           -1.50     -0.00    1.50  H2O
  O2(g)           -39.20    -42.09   -2.89  O2

**For a gas, SI = log10(fugacity). Fugacity = pressure * phi / 1 atm.
  For ideal gases, phi = 1.

Reaction step 2.

Using solution 1.	
Using temperature 1.	
Using pressure 1.	
Using reaction 1.	

Reaction 1.	

	  3.346e-03 moles of the following reaction have been added:

	                 Relative
	Reactant            moles

	HCl                  1.00000

	                 Relative
	Element             moles
	Cl                   1.00000
	H                    1.00000

-----------------------------Solution composition------------------------------

	Elements           Molality       Moles

	Cl                3.346e-03   3.346e-03

----------------------------Description of solution----------------------------

                                       pH  =   2.501      Charge balance
                                       pe  =  15.086      Adjusted to redox equilibrium
      Specific Conductance (µS/cm,  25°C)  = 1397
                          Density (g/cm³)  =   0.99706
                               Volume (L)  =   1.00307
                        Viscosity (mPa s)  =   0.89030
                        Activity of water  =   1.000
                 Ionic strength (mol/kgw)  =   3.342e-03
                       Mass of water (kg)  =   1.000e+00
                 Total alkalinity (eq/kg)  =  -3.346e-03
                         Temperature (°C)  =  25.00
                           Pressure (atm)  =  0.03
                  Electrical balance (eq)  =   2.910e-11
 Percent error, 100*(Cat-|An|)/(Cat+|An|)  =   0.00
                               Iterations  =  13
                                  Total H  = 1.110158e+02
                                  Total O  = 5.550622e+01

----------------------------Distribution of species----------------------------

                                               Log       Log       Log    mole V
   Species          Molality    Activity  Molality  Activity     Gamma   cm³/mol

   H+              3.342e-03   3.154e-03    -2.476    -2.501    -0.025      0.00
   OH-             3.420e-12   3.209e-12   -11.466   -11.494    -0.028     -4.08
   H2O             5.551e+01   9.999e-01     1.744    -0.000     0.000     18.07
Cl            3.346e-03
   Cl-             3.342e-03   3.137e-03    -2.476    -2.504    -0.028     18.10
   HCl             3.397e-06   3.408e-06    -5.469    -5.467     0.001     (0)  
H(0)          9.459e-39
   H2              4.730e-39   4.733e-39   -38.325   -38.325     0.000     28.61
O(0)          3.718e-16
   O2              1.859e-16   1.860e-16   -15.731   -15.730     0.000     30.40

------------------------------Saturation indices-------------------------------

  Phase               SI** log IAP   log K(298 K,   0 atm)

  H2(g)           -35.22    -38.32   -3.10  H2
  H2O(g)           -1.50     -0.00    1.50  H2O
  O2(g)           -12.84    -15.73   -2.89  O2

**For a gas, SI = log10(fugacity). Fugacity = pressure * phi / 1 atm.
  For ideal gases, phi = 1.

Reaction step 3.

Using solution 1.	
Using temperature 1.	
Using pressure 1.	
Using reaction 1.	

Reaction 1.	

	  3.510e-03 moles of the following reaction have been added:

	                 Relative
	Reactant            moles

	HCl                  1.00000

	                 Relative
	Element             moles
	Cl                   1.00000
	H                    1.00000

-----------------------------Solution composition------------------------------

	Elements           Molality       Moles

	Cl                3.510e-03   3.510e-03

----------------------------Description of solution----------------------------

                                       pH  =   2.481      Charge balance
                                       pe  =   3.306      Adjusted to redox equilibrium
      Specific Conductance (µS/cm,  25°C)  = 1465
                          Density (g/cm³)  =   0.99706
                               Volume (L)  =   1.00307
                        Viscosity (mPa s)  =   0.89031
                        Activity of water  =   1.000
                 Ionic strength (mol/kgw)  =   3.506e-03
                       Mass of water (kg)  =   1.000e+00
                 Total alkalinity (eq/kg)  =  -3.510e-03
                         Temperature (°C)  =  25.00
                           Pressure (atm)  =  0.03
                  Electrical balance (eq)  =   6.494e-14
 Percent error, 100*(Cat-|An|)/(Cat+|An|)  =   0.00
                               Iterations  =  12
                                  Total H  = 1.110159e+02
                                  Total O  = 5.550622e+01

----------------------------Distribution of species----------------------------

                                               Log       Log       Log    mole V
   Species          Molality    Activity  Molality  Activity     Gamma   cm³/mol

   H+              3.506e-03   3.305e-03    -2.455    -2.481    -0.026      0.00
   OH-             3.269e-12   3.063e-12   -11.486   -11.514    -0.028     -4.08
   H2O             5.551e+01   9.999e-01     1.744    -0.000     0.000     18.07
Cl            3.510e-03
   Cl-             3.506e-03   3.286e-03    -2.455    -2.483    -0.028     18.10
   HCl             3.728e-06   3.741e-06    -5.429    -5.427     0.001     (0)  
H(0)          3.782e-15
   H2              1.891e-15   1.892e-15   -14.723   -14.723     0.000     28.61
O(0)          0.000e+00
   O2              0.000e+00   0.000e+00   -62.935   -62.934     0.000     30.40

------------------------------Saturation indices-------------------------------

  Phase               SI** log IAP   log K(298 K,   0 atm)

  H2(g)           -11.62    -14.72   -3.10  H2
  H2O(g)           -1.50     -0.00    1.50  H2O
  O2(g)           -60.04    -62.93   -2.89  O2

**For a gas, SI = log10(fugacity). Fugacity = pressure * phi / 1 atm.
  For ideal gases, phi = 1.

Reaction step 4.

Using solution 1.	
Using temperature 1.	
Using pressure 1.	
Using reaction 1.	

Reaction 1.	

	  5.804e-03 moles of the following reaction have been added:

	                 Relative
	Reactant            moles

	HCl                  1.00000

	                 Relative
	Element             moles
	Cl                   1.00000
	H                    1.00000

-----------------------------Solution composition------------------------------

	Elements           Molality       Moles

	Cl                5.804e-03   5.804e-03

----------------------------Description of solution----------------------------

                                       pH  =   2.269      Charge balance
                                       pe  =   3.619      Adjusted to redox equilibrium
      Specific Conductance (µS/cm,  25°C)  = 2409
                          Density (g/cm³)  =   0.99711
                               Volume (L)  =   1.00311
                        Viscosity (mPa s)  =   0.89044
                        Activity of water  =   1.000
                 Ionic strength (mol/kgw)  =   5.794e-03
                       Mass of water (kg)  =   1.000e+00
                 Total alkalinity (eq/kg)  =  -5.804e-03
                         Temperature (°C)  =  25.00
                           Pressure (atm)  =  0.03
                  Electrical balance (eq)  =  -2.832e-17
 Percent error, 100*(Cat-|An|)/(Cat+|An|)  =  -0.00
                               Iterations  =  11
                                  Total H  = 1.110182e+02
                                  Total O  = 5.550622e+01

----------------------------Distribution of species----------------------------

                                               Log       Log       Log    mole V
   Species          Molality    Activity  Molality  Activity     Gamma   cm³/mol

   H+              5.794e-03   5.386e-03    -2.237    -2.269    -0.032      0.00
   OH-             2.040e-12   1.879e-12   -11.690   -11.726    -0.036     -4.06
   H2O             5.551e+01   9.998e-01     1.744    -0.000     0.000     18.07
Cl            5.804e-03
   Cl-             5.794e-03   5.340e-03    -2.237    -2.272    -0.035     18.12
   HCl             9.852e-06   9.908e-06    -5.006    -5.004     0.002     (0)  
H(0)          2.369e-15
   H2              1.184e-15   1.186e-15   -14.927   -14.926     0.001     28.61
O(0)          0.000e+00
   O2              0.000e+00   0.000e+00   -62.529   -62.528     0.001     30.40

------------------------------Saturation indices-------------------------------

  Phase               SI** log IAP   log K(298 K,   0 atm)

  H2(g)           -11.82    -14.93   -3.10  H2
  H2O(g)           -1.50     -0.00    1.50  H2O
  O2(g)           -59.64    -62.53   -2.89  O2

**For a gas, SI = log10(fugacity). Fugacity = pressure * phi / 1 atm.
  For ideal gases, phi = 1.

Reaction step 5.

Using solution 1.	
Using temperature 1.	
Using pressure 1.	
Using reaction 1.	

Reaction 1.	

	  8.153e-03 moles of the following reaction have been added:

	                 Relative
	Reactant            moles

	HCl                  1.00000

	                 Relative
	Element             moles
	Cl                   1.00000
	H                    1.00000

-----------------------------Solution composition------------------------------

	Elements           Molality       Moles

	Cl                8.153e-03   8.153e-03

----------------------------Description of solution----------------------------

                                       pH  =   2.126      Charge balance
                                       pe  =  15.626      Adjusted to redox equilibrium
      Specific Conductance (µS/cm,  25°C)  = 3367
                          Density (g/cm³)  =   0.99715
                               Volume (L)  =   1.00316
                        Viscosity (mPa s)  =   0.89057
                        Activity of water  =   1.000
                 Ionic strength (mol/kgw)  =   8.134e-03
                       Mass of water (kg)  =   1.000e+00
                 Total alkalinity (eq/kg)  =  -8.153e-03
                         Temperature (°C)  =  25.00
                           Pressure (atm)  =  0.03
                  Electrical balance (eq)  =  -1.884e-17
 Percent error, 100*(Cat-|An|)/(Cat+|An|)  =  -0.00
                               Iterations  =  13
                                  Total H  = 1.110206e+02
                                  Total O  = 5.550622e+01

----------------------------Distribution of species----------------------------

                                               Log       Log       Log    mole V
   Species          Molality    Activity  Molality  Activity     Gamma   cm³/mol

   H+              8.134e-03   7.481e-03    -2.090    -2.126    -0.036      0.00
   OH-             1.489e-12   1.353e-12   -11.827   -11.869    -0.042     -4.05
   H2O             5.551e+01   9.997e-01     1.744    -0.000     0.000     18.07
Cl            8.153e-03
   Cl-             8.134e-03   7.395e-03    -2.090    -2.131    -0.041     18.13
   HCl             1.891e-05   1.906e-05    -4.723    -4.720     0.003     (0)  
H(0)          4.433e-39
   H2              2.217e-39   2.221e-39   -38.654   -38.654     0.001     28.61
O(0)          1.686e-15
   O2              8.432e-16   8.448e-16   -15.074   -15.073     0.001     30.40

------------------------------Saturation indices-------------------------------

  Phase               SI** log IAP   log K(298 K,   0 atm)

  H2(g)           -35.55    -38.65   -3.10  H2
  H2O(g)           -1.50     -0.00    1.50  H2O
  O2(g)           -12.18    -15.07   -2.89  O2

**For a gas, SI = log10(fugacity). Fugacity = pressure * phi / 1 atm.
  For ideal gases, phi = 1.

Reaction step 6.

Using solution 1.	
Using temperature 1.	
Using pressure 1.	
Using reaction 1.	

Reaction 1.	

	  1.005e-02 moles of the following reaction have been added:

	                 Relative
	Reactant            moles

	HCl                  1.00000

	                 Relative
	Element             moles
	Cl                   1.00000
	H                    1.00000

-----------------------------Solution composition------------------------------

	Elements           Molality       Moles

	Cl                1.005e-02   1.005e-02

----------------------------Description of solution----------------------------

                                       pH  =   2.038      Charge balance
                                       pe  =   2.869      Adjusted to redox equilibrium
      Specific Conductance (µS/cm,  25°C)  = 4137
                          Density (g/cm³)  =   0.99718
                               Volume (L)  =   1.00319
                        Viscosity (mPa s)  =   0.89067
                        Activity of water  =   1.000
                 Ionic strength (mol/kgw)  =   1.002e-02
                       Mass of water (kg)  =   1.000e+00
                 Total alkalinity (eq/kg)  =  -1.005e-02
                         Temperature (°C)  =  25.00
                           Pressure (atm)  =  0.03
                  Electrical balance (eq)  =   1.401e-11
 Percent error, 100*(Cat-|An|)/(Cat+|An|)  =   0.00
                               Iterations  =  11
                                  Total H  = 1.110225e+02
                                  Total O  = 5.550622e+01

----------------------------Distribution of species----------------------------

                                               Log       Log       Log    mole V
   Species          Molality    Activity  Molality  Activity     Gamma   cm³/mol

   H+              1.002e-02   9.153e-03    -1.999    -2.038    -0.039      0.00
   OH-             1.228e-12   1.105e-12   -11.911   -11.956    -0.046     -4.04
   H2O             5.551e+01   9.997e-01     1.744    -0.000     0.000     18.07
Cl            1.005e-02
   Cl-             1.002e-02   9.026e-03    -1.999    -2.044    -0.045     18.14
   HCl             2.818e-05   2.846e-05    -4.550    -4.546     0.004     (0)  
H(0)          2.164e-13
   H2              1.082e-13   1.084e-13   -12.966   -12.965     0.001     28.61
O(0)          0.000e+00
   O2              0.000e+00   0.000e+00   -66.452   -66.451     0.001     30.40

------------------------------Saturation indices-------------------------------

  Phase               SI** log IAP   log K(298 K,   0 atm)

  H2(g)            -9.86    -12.96   -3.10  H2
  H2O(g)           -1.50     -0.00    1.50  H2O
  O2(g)           -63.56    -66.45   -2.89  O2

**For a gas, SI = log10(fugacity). Fugacity = pressure * phi / 1 atm.
  For ideal gases, phi = 1.

Reaction step 7.

Using solution 1.	
Using temperature 1.	
Using pressure 1.	
Using reaction 1.	

Reaction 1.	

	  1.090e-02 moles of the following reaction have been added:

	                 Relative
	Reactant            moles

	HCl                  1.00000

	                 Relative
	Element             moles
	Cl                   1.00000
	H                    1.00000

-----------------------------Solution composition------------------------------

	Elements           Molality       Moles

	Cl                1.090e-02   1.090e-02

----------------------------Description of solution----------------------------

                                       pH  =   2.004      Charge balance
                                       pe  =  15.803      Adjusted to redox equilibrium
      Specific Conductance (µS/cm,  25°C)  = 4482
                          Density (g/cm³)  =   0.99720
                               Volume (L)  =   1.00321
                        Viscosity (mPa s)  =   0.89072
                        Activity of water  =   1.000
                 Ionic strength (mol/kgw)  =   1.087e-02
                       Mass of water (kg)  =   1.000e+00
                 Total alkalinity (eq/kg)  =  -1.090e-02
                         Temperature (°C)  =  25.00
                           Pressure (atm)  =  0.03
                  Electrical balance (eq)  =   1.448e-11
 Percent error, 100*(Cat-|An|)/(Cat+|An|)  =   0.00
                               Iterations  =  13
                                  Total H  = 1.110233e+02
                                  Total O  = 5.550622e+01

----------------------------Distribution of species----------------------------

                                               Log       Log       Log    mole V
   Species          Molality    Activity  Molality  Activity     Gamma   cm³/mol

   H+              1.087e-02   9.898e-03    -1.964    -2.004    -0.041      0.00
   OH-             1.140e-12   1.022e-12   -11.943   -11.990    -0.047     -4.03
   H2O             5.551e+01   9.996e-01     1.744    -0.000     0.000     18.07
Cl            1.090e-02
   Cl-             1.087e-02   9.752e-03    -1.964    -2.011    -0.047     18.14
   HCl             3.290e-05   3.325e-05    -4.483    -4.478     0.005     (0)  
H(0)          3.421e-39
   H2              1.711e-39   1.715e-39   -38.767   -38.766     0.001     28.61
O(0)          2.826e-15
   O2              1.413e-15   1.417e-15   -14.850   -14.849     0.001     30.40

------------------------------Saturation indices-------------------------------

  Phase               SI** log IAP   log K(298 K,   0 atm)

  H2(g)           -35.66    -38.77   -3.10  H2
  H2O(g)           -1.50     -0.00    1.50  H2O
  O2(g)           -11.96    -14.85   -2.89  O2

**For a gas, SI = log10(fugacity). Fugacity = pressure * phi / 1 atm.
  For ideal gases, phi = 1.

Reaction step 8.

Using solution 1.	
Using temperature 1.	
Using pressure 1.	
Using reaction 1.	

Reaction 1.	

	  1.992e-02 moles of the following reaction have been added:

	                 Relative
	Reactant            moles

	HCl                  1.00000

	                 Relative
	Element             moles
	Cl                   1.00000
	H                    1.00000

-----------------------------Solution composition------------------------------

	Elements           Molality       Moles

	Cl                1.992e-02   1.992e-02

----------------------------Description of solution----------------------------

                                       pH  =   1.754      Charge balance
                                       pe  =  16.017      Adjusted to redox equilibrium
      Specific Conductance (µS/cm,  25°C)  = 8087
                          Density (g/cm³)  =   0.99737
                               Volume (L)  =   1.00337
                        Viscosity (mPa s)  =   0.89120
                        Activity of water  =   0.999
                 Ionic strength (mol/kgw)  =   1.982e-02
                       Mass of water (kg)  =   1.000e+00
                 Total alkalinity (eq/kg)  =  -1.992e-02
                         Temperature (°C)  =  25.00
                           Pressure (atm)  =  0.03
                  Electrical balance (eq)  =   2.223e-11
 Percent error, 100*(Cat-|An|)/(Cat+|An|)  =   0.00
                               Iterations  =  14
                                  Total H  = 1.110324e+02
                                  Total O  = 5.550622e+01

----------------------------Distribution of species----------------------------

                                               Log       Log       Log    mole V
   Species          Molality    Activity  Molality  Activity     Gamma   cm³/mol

   H+              1.982e-02   1.763e-02    -1.703    -1.754    -0.051      0.00
   OH-             6.613e-13   5.736e-13   -12.180   -12.241    -0.062     -3.99
   H2O             5.551e+01   9.993e-01     1.744    -0.000     0.000     18.07
Cl            1.992e-02
   Cl-             1.982e-02   1.721e-02    -1.703    -1.764    -0.061     18.18
   HCl             1.026e-04   1.046e-04    -3.989    -3.981     0.008     (0)  
H(0)          4.052e-39
   H2              2.026e-39   2.035e-39   -38.693   -38.691     0.002     28.61
O(0)          2.001e-15
   O2              1.001e-15   1.005e-15   -15.000   -14.998     0.002     30.40

------------------------------Saturation indices-------------------------------

  Phase               SI** log IAP   log K(298 K,   0 atm)

  H2(g)           -35.59    -38.69   -3.10  H2
  H2O(g)           -1.50     -0.00    1.50  H2O
  O2(g)           -12.11    -15.00   -2.89  O2

**For a gas, SI = log10(fugacity). Fugacity = pressure * phi / 1 atm.
  For ideal gases, phi = 1.

Reaction step 9.

Using solution 1.	
Using temperature 1.	
Using pressure 1.	
Using reaction 1.	

Reaction 1.	

	  2.032e-02 moles of the following reaction have been added:

	                 Relative
	Reactant            moles

	HCl                  1.00000

	                 Relative
	Element             moles
	Cl                   1.00000
	H                    1.00000

-----------------------------Solution composition------------------------------

	Elements           Molality       Moles

	Cl                2.032e-02   2.032e-02

----------------------------Description of solution----------------------------

                                       pH  =   1.745      Charge balance
                                       pe  =  15.942      Adjusted to redox equilibrium
      Specific Conductance (µS/cm,  25°C)  = 8246
                          Density (g/cm³)  =   0.99737
                               Volume (L)  =   1.00338
                        Viscosity (mPa s)  =   0.89122
                        Activity of water  =   0.999
                 Ionic strength (mol/kgw)  =   2.021e-02
                       Mass of water (kg)  =   1.000e+00
                 Total alkalinity (eq/kg)  =  -2.032e-02
                         Temperature (°C)  =  25.00
                           Pressure (atm)  =  0.03
                  Electrical balance (eq)  =  -1.535e-17
 Percent error, 100*(Cat-|An|)/(Cat+|An|)  =  -0.00
                               Iterations  =  14
                                  Total H  = 1.110328e+02
                                  Total O  = 5.550622e+01

----------------------------Distribution of species----------------------------

                                               Log       Log       Log    mole V
   Species          Molality    Activity  Molality  Activity     Gamma   cm³/mol

   H+              2.021e-02   1.797e-02    -1.694    -1.745    -0.051      0.00
   OH-             6.497e-13   5.628e-13   -12.187   -12.250    -0.062     -3.99
   H2O             5.551e+01   9.993e-01     1.744    -0.000     0.000     18.07
Cl            2.032e-02
   Cl-             2.021e-02   1.754e-02    -1.694    -1.756    -0.062     18.18
   HCl             1.064e-04   1.086e-04    -3.973    -3.964     0.009     (0)  
H(0)          5.952e-39
   H2              2.976e-39   2.990e-39   -38.526   -38.524     0.002     28.61
O(0)          9.272e-16
   O2              4.636e-16   4.657e-16   -15.334   -15.332     0.002     30.40

------------------------------Saturation indices-------------------------------

  Phase               SI** log IAP   log K(298 K,   0 atm)

  H2(g)           -35.42    -38.52   -3.10  H2
  H2O(g)           -1.50     -0.00    1.50  H2O
  O2(g)           -12.44    -15.33   -2.89  O2

**For a gas, SI = log10(fugacity). Fugacity = pressure * phi / 1 atm.
  For ideal gases, phi = 1.

Reaction step 10.

Using solution 1.	
Using temperature 1.	
Using pressure 1.	
Using reaction 1.	

Reaction 1.	

	  2.072e-02 moles of the following reaction have been added:

	                 Relative
	Reactant            moles

	HCl                  1.00000

	                 Relative
	Element             moles
	Cl                   1.00000
	H                    1.00000

-----------------------------Solution composition------------------------------

	Elements           Molality       Moles

	Cl                2.072e-02   2.072e-02

----------------------------Description of solution----------------------------

                                       pH  =   1.737      Charge balance
                                       pe  =  16.045      Adjusted to redox equilibrium
      Specific Conductance (µS/cm,  25°C)  = 8405
                          Density (g/cm³)  =   0.99738
                               Volume (L)  =   1.00338
                        Viscosity (mPa s)  =   0.89124
                        Activity of water  =   0.999
                 Ionic strength (mol/kgw)  =   2.061e-02
                       Mass of water (kg)  =   1.000e+00
                 Total alkalinity (eq/kg)  =  -2.072e-02
                         Temperature (°C)  =  25.00
                           Pressure (atm)  =  0.03
                  Electrical balance (eq)  =   1.058e-10
 Percent error, 100*(Cat-|An|)/(Cat+|An|)  =   0.00
                               Iterations  =  14
                                  Total H  = 1.110332e+02
                                  Total O  = 5.550622e+01

----------------------------Distribution of species----------------------------

                                               Log       Log       Log    mole V
   Species          Molality    Activity  Molality  Activity     Gamma   cm³/mol

   H+              2.061e-02   1.831e-02    -1.686    -1.737    -0.051      0.00
   OH-             6.384e-13   5.524e-13   -12.195   -12.258    -0.063     -3.98
   H2O             5.551e+01   9.993e-01     1.744    -0.000     0.000     18.07
Cl            2.072e-02
   Cl-             2.061e-02   1.786e-02    -1.686    -1.748    -0.062     18.18
   HCl             1.104e-04   1.127e-04    -3.957    -3.948     0.009     (0)  
H(0)          3.845e-39
   H2              1.922e-39   1.932e-39   -38.716   -38.714     0.002     28.61
O(0)          2.221e-15
   O2              1.110e-15   1.116e-15   -14.954   -14.952     0.002     30.40

------------------------------Saturation indices-------------------------------

  Phase               SI** log IAP   log K(298 K,   0 atm)

  H2(g)           -35.61    -38.71   -3.10  H2
  H2O(g)           -1.50     -0.00    1.50  H2O
  O2(g)           -12.06    -14.95   -2.89  O2

**For a gas, SI = log10(fugacity). Fugacity = pressure * phi / 1 atm.
  For ideal gases, phi = 1.

Reaction step 11.

Using solution 1.	
Using temperature 1.	
Using pressure 1.	
Using reaction 1.	

Reaction 1.	

	  2.918e-02 moles of the following reaction have been added:

	                 Relative
	Reactant            moles

	HCl                  1.00000

	                 Relative
	Element             moles
	Cl                   1.00000
	H                    1.00000

-----------------------------Solution composition------------------------------

	Elements           Molality       Moles

	Cl                2.918e-02   2.918e-02

----------------------------Description of solution----------------------------

                                       pH  =   1.596      Charge balance
                                       pe  =  16.203      Adjusted to redox equilibrium
      Specific Conductance (µS/cm,  25°C)  = 11726
                          Density (g/cm³)  =   0.99754
                               Volume (L)  =   1.00354
                        Viscosity (mPa s)  =   0.89168
                        Activity of water  =   0.999
                 Ionic strength (mol/kgw)  =   2.897e-02
                       Mass of water (kg)  =   1.000e+00
                 Total alkalinity (eq/kg)  =  -2.918e-02
                         Temperature (°C)  =  25.00
                           Pressure (atm)  =  0.03
                  Electrical balance (eq)  =   9.465e-12
 Percent error, 100*(Cat-|An|)/(Cat+|An|)  =   0.00
                               Iterations  =  15
                                  Total H  = 1.110416e+02
                                  Total O  = 5.550622e+01

----------------------------Distribution of species----------------------------

                                               Log       Log       Log    mole V
   Species          Molality    Activity  Molality  Activity     Gamma   cm³/mol

   H+              2.897e-02   2.536e-02    -1.538    -1.596    -0.058      0.00
   OH-             4.713e-13   3.987e-13   -12.327   -12.399    -0.073     -3.95
   H2O             5.551e+01   9.990e-01     1.744    -0.000     0.000     18.07
Cl            2.918e-02
   Cl-             2.897e-02   2.456e-02    -1.538    -1.610    -0.072     18.20
   HCl             2.086e-04   2.146e-04    -3.681    -3.668     0.012     (0)  
H(0)          3.544e-39
   H2              1.772e-39   1.784e-39   -38.752   -38.749     0.003     28.61
O(0)          2.598e-15
   O2              1.299e-15   1.308e-15   -14.886   -14.883     0.003     30.40

------------------------------Saturation indices-------------------------------

  Phase               SI** log IAP   log K(298 K,   0 atm)

  H2(g)           -35.65    -38.75   -3.10  H2
  H2O(g)           -1.50     -0.00    1.50  H2O
  O2(g)           -11.99    -14.88   -2.89  O2

**For a gas, SI = log10(fugacity). Fugacity = pressure * phi / 1 atm.
  For ideal gases, phi = 1.

Reaction step 12.

Using solution 1.	
Using temperature 1.	
Using pressure 1.	
Using reaction 1.	

Reaction 1.	

	  3.001e-02 moles of the following reaction have been added:

	                 Relative
	Reactant            moles

	HCl                  1.00000

	                 Relative
	Element             moles
	Cl                   1.00000
	H                    1.00000

-----------------------------Solution composition------------------------------

	Elements           Molality       Moles

	Cl                3.001e-02   3.001e-02

----------------------------Description of solution----------------------------

                                       pH  =   1.584      Charge balance
                                       pe  =   3.958      Adjusted to redox equilibrium
      Specific Conductance (µS/cm,  25°C)  = 12051
                          Density (g/cm³)  =   0.99755
                               Volume (L)  =   1.00355
                        Viscosity (mPa s)  =   0.89173
                        Activity of water  =   0.999
                 Ionic strength (mol/kgw)  =   2.979e-02
                       Mass of water (kg)  =   1.000e+00
                 Total alkalinity (eq/kg)  =  -3.001e-02
                         Temperature (°C)  =  25.00
                           Pressure (atm)  =  0.03
                  Electrical balance (eq)  =   1.551e-14
 Percent error, 100*(Cat-|An|)/(Cat+|An|)  =   0.00
                               Iterations  =  12
                                  Total H  = 1.110424e+02
                                  Total O  = 5.550622e+01

----------------------------Distribution of species----------------------------

                                               Log       Log       Log    mole V
   Species          Molality    Activity  Molality  Activity     Gamma   cm³/mol

   H+              2.979e-02   2.605e-02    -1.526    -1.584    -0.058      0.00
   OH-             4.597e-13   3.882e-13   -12.338   -12.411    -0.073     -3.95
   H2O             5.551e+01   9.990e-01     1.744    -0.000     0.000     18.07
Cl            3.001e-02
   Cl-             2.979e-02   2.521e-02    -1.526    -1.598    -0.073     18.21
   HCl             2.197e-04   2.262e-04    -3.658    -3.645     0.013     (0)  
H(0)          1.160e-14
   H2              5.800e-15   5.840e-15   -14.237   -14.234     0.003     28.61
O(0)          0.000e+00
   O2              0.000e+00   0.000e+00   -63.917   -63.914     0.003     30.40

------------------------------Saturation indices-------------------------------

  Phase               SI** log IAP   log K(298 K,   0 atm)

  H2(g)           -11.13    -14.23   -3.10  H2
  H2O(g)           -1.50     -0.00    1.50  H2O
  O2(g)           -61.02    -63.91   -2.89  O2

**For a gas, SI = log10(fugacity). Fugacity = pressure * phi / 1 atm.
  For ideal gases, phi = 1.

Reaction step 13.

Using solution 1.	
Using temperature 1.	
Using pressure 1.	
Using reaction 1.	

Reaction 1.	

	  3.964e-02 moles of the following reaction have been added:

	                 Relative
	Reactant            moles

	HCl                  1.00000

	                 Relative
	Element             moles
	Cl                   1.00000
	H                    1.00000

-----------------------------Solution composition------------------------------

	Elements           Molality       Moles

	Cl                3.964e-02   3.964e-02

----------------------------Description of solution----------------------------

                                       pH  =   1.470      Charge balance
                                       pe  =   4.161      Adjusted to redox equilibrium
      Specific Conductance (µS/cm,  25°C)  = 15779
                          Density (g/cm³)  =   0.99773
                               Volume (L)  =   1.00373
                        Viscosity (mPa s)  =   0.89223
                        Activity of water  =   0.999
                 Ionic strength (mol/kgw)  =   3.927e-02
                       Mass of water (kg)  =   1.000e+00
                 Total alkalinity (eq/kg)  =  -3.964e-02
                         Temperature (°C)  =  25.00
                           Pressure (atm)  =  0.03
                  Electrical balance (eq)  =   3.829e-12
 Percent error, 100*(Cat-|An|)/(Cat+|An|)  =   0.00
                               Iterations  =  13
                                  Total H  = 1.110521e+02
                                  Total O  = 5.550622e+01

----------------------------Distribution of species----------------------------

                                               Log       Log       Log    mole V
   Species          Molality    Activity  Molality  Activity     Gamma   cm³/mol

   H+              3.927e-02   3.391e-02    -1.406    -1.470    -0.064      0.00
   OH-             3.603e-13   2.981e-13   -12.443   -12.526    -0.082     -3.91
   H2O             5.551e+01   9.987e-01     1.744    -0.001     0.000     18.07
Cl            3.964e-02
   Cl-             3.927e-02   3.258e-02    -1.406    -1.487    -0.081     18.23
   HCl             3.663e-04   3.807e-04    -3.436    -3.419     0.017     (0)  
H(0)          7.681e-15
   H2              3.840e-15   3.875e-15   -14.416   -14.412     0.004     28.61
O(0)          0.000e+00
   O2              0.000e+00   0.000e+00   -63.562   -63.558     0.004     30.40

------------------------------Saturation indices-------------------------------

  Phase               SI** log IAP   log K(298 K,   0 atm)

  H2(g)           -11.31    -14.41   -3.10  H2
  H2O(g)           -1.50     -0.00    1.50  H2O
  O2(g)           -60.67    -63.56   -2.89  O2

**For a gas, SI = log10(fugacity). Fugacity = pressure * phi / 1 atm.
  For ideal gases, phi = 1.

Reaction step 14.

Using solution 1.	
Using temperature 1.	
Using pressure 1.	
Using reaction 1.	

Reaction 1.	

	  4.000e-02 moles of the following reaction have been added:

	                 Relative
	Reactant            moles

	HCl                  1.00000

	                 Relative
	Element             moles
	Cl                   1.00000
	H                    1.00000

-----------------------------Solution composition------------------------------

	Elements           Molality       Moles

	Cl                4.000e-02   4.000e-02

----------------------------Description of solution----------------------------

                                       pH  =   1.466      Charge balance
                                       pe  =   4.106      Adjusted to redox equilibrium
      Specific Conductance (µS/cm,  25°C)  = 15917
                          Density (g/cm³)  =   0.99773
                               Volume (L)  =   1.00373
                        Viscosity (mPa s)  =   0.89225
                        Activity of water  =   0.999
                 Ionic strength (mol/kgw)  =   3.963e-02
                       Mass of water (kg)  =   1.000e+00
                 Total alkalinity (eq/kg)  =  -4.000e-02
                         Temperature (°C)  =  25.00
                           Pressure (atm)  =  0.03
                  Electrical balance (eq)  =   2.268e-12
 Percent error, 100*(Cat-|An|)/(Cat+|An|)  =   0.00
                               Iterations  =  13
                                  Total H  = 1.110524e+02
                                  Total O  = 5.550622e+01

----------------------------Distribution of species----------------------------

                                               Log       Log       Log    mole V
   Species          Molality    Activity  Molality  Activity     Gamma   cm³/mol

   H+              3.963e-02   3.420e-02    -1.402    -1.466    -0.064      0.00
   OH-             3.574e-13   2.955e-13   -12.447   -12.529    -0.083     -3.91
   H2O             5.551e+01   9.986e-01     1.744    -0.001     0.000     18.07
Cl            4.000e-02
   Cl-             3.963e-02   3.286e-02    -1.402    -1.483    -0.081     18.23
   HCl             3.724e-04   3.871e-04    -3.429    -3.412     0.017     (0)  
H(0)          1.008e-14
   H2              5.038e-15   5.085e-15   -14.298   -14.294     0.004     28.61
O(0)          0.000e+00
   O2              0.000e+00   0.000e+00   -63.798   -63.794     0.004     30.40

------------------------------Saturation indices-------------------------------

  Phase               SI** log IAP   log K(298 K,   0 atm)

  H2(g)           -11.19    -14.29   -3.10  H2
  H2O(g)           -1.50     -0.00    1.50  H2O
  O2(g)           -60.90    -63.79   -2.89  O2

**For a gas, SI = log10(fugacity). Fugacity = pressure * phi / 1 atm.
  For ideal gases, phi = 1.

Reaction step 15.

Using solution 1.	
Using temperature 1.	
Using pressure 1.	
Using reaction 1.	

Reaction 1.	

	  5.050e-02 moles of the following reaction have been added:

	                 Relative
	Reactant            moles

	HCl                  1.00000

	                 Relative
	Element             moles
	Cl                   1.00000
	H                    1.00000

-----------------------------Solution composition------------------------------

	Elements           Molality       Moles

	Cl                5.050e-02   5.050e-02

----------------------------Description of solution----------------------------

                                       pH  =   1.370      Charge balance
                                       pe  =  16.159      Adjusted to redox equilibrium
      Specific Conductance (µS/cm,  25°C)  = 19927
                          Density (g/cm³)  =   0.99793
                               Volume (L)  =   1.00392
                        Viscosity (mPa s)  =   0.89279
                        Activity of water  =   0.998
                 Ionic strength (mol/kgw)  =   4.993e-02
                       Mass of water (kg)  =   1.000e+00
                 Total alkalinity (eq/kg)  =  -5.050e-02
                         Temperature (°C)  =  25.00
                           Pressure (atm)  =  0.03
                  Electrical balance (eq)  =   1.724e-14
 Percent error, 100*(Cat-|An|)/(Cat+|An|)  =   0.00
                               Iterations  =  15
                                  Total H  = 1.110629e+02
                                  Total O  = 5.550622e+01

----------------------------Distribution of species----------------------------

                                               Log       Log       Log    mole V
   Species          Molality    Activity  Molality  Activity     Gamma   cm³/mol

   H+              4.993e-02   4.263e-02    -1.302    -1.370    -0.069      0.00
   OH-             2.920e-13   2.370e-13   -12.535   -12.625    -0.091     -3.88
   H2O             5.551e+01   9.983e-01     1.744    -0.001     0.000     18.07
Cl            5.050e-02
   Cl-             4.993e-02   4.067e-02    -1.302    -1.391    -0.089     18.25
   HCl             5.687e-04   5.972e-04    -3.245    -3.224     0.021     (0)  
H(0)          1.223e-38
   H2              6.113e-39   6.184e-39   -38.214   -38.209     0.005     28.61
O(0)          2.148e-16
   O2              1.074e-16   1.086e-16   -15.969   -15.964     0.005     30.40

------------------------------Saturation indices-------------------------------

  Phase               SI** log IAP   log K(298 K,   0 atm)

  H2(g)           -35.11    -38.21   -3.10  H2
  H2O(g)           -1.50     -0.00    1.50  H2O
  O2(g)           -13.07    -15.96   -2.89  O2

**For a gas, SI = log10(fugacity). Fugacity = pressure * phi / 1 atm.
  For ideal gases, phi = 1.

Reaction step 16.

Using solution 1.	
Using temperature 1.	
Using pressure 1.	
Using reaction 1.	

Reaction 1.	

	  5.765e-02 moles of the following reaction have been added:

	                 Relative
	Reactant            moles

	HCl                  1.00000

	                 Relative
	Element             moles
	Cl                   1.00000
	H                    1.00000

-----------------------------Solution composition------------------------------

	Elements           Molality       Moles

	Cl                5.765e-02   5.765e-02

----------------------------Description of solution----------------------------

                                       pH  =   1.316      Charge balance
                                       pe  =  16.472      Adjusted to redox equilibrium
      Specific Conductance (µS/cm,  25°C)  = 22629
                          Density (g/cm³)  =   0.99806
                               Volume (L)  =   1.00405
                        Viscosity (mPa s)  =   0.89317
                        Activity of water  =   0.998
                 Ionic strength (mol/kgw)  =   5.693e-02
                       Mass of water (kg)  =   1.000e+00
                 Total alkalinity (eq/kg)  =  -5.765e-02
                         Temperature (°C)  =  25.00
                           Pressure (atm)  =  0.03
                  Electrical balance (eq)  =   1.019e-12
 Percent error, 100*(Cat-|An|)/(Cat+|An|)  =   0.00
                               Iterations  =  15
                                  Total H  = 1.110701e+02
                                  Total O  = 5.550622e+01

----------------------------Distribution of species----------------------------

                                               Log       Log       Log    mole V
   Species          Molality    Activity  Molality  Activity     Gamma   cm³/mol

   H+              5.693e-02   4.830e-02    -1.245    -1.316    -0.071      0.00
   OH-             2.606e-13   2.091e-13   -12.584   -12.680    -0.095     -3.85
   H2O             5.551e+01   9.981e-01     1.744    -0.001     0.000     18.07
Cl            5.765e-02
   Cl-             5.693e-02   4.587e-02    -1.245    -1.338    -0.094     18.27
   HCl             7.219e-04   7.633e-04    -3.142    -3.117     0.024     (0)  
H(0)          3.706e-39
   H2              1.853e-39   1.878e-39   -38.732   -38.726     0.006     28.61
O(0)          2.325e-15
   O2              1.162e-15   1.178e-15   -14.935   -14.929     0.006     30.40

------------------------------Saturation indices-------------------------------

  Phase               SI** log IAP   log K(298 K,   0 atm)

  H2(g)           -35.63    -38.73   -3.10  H2
  H2O(g)           -1.50     -0.00    1.50  H2O
  O2(g)           -12.04    -14.93   -2.89  O2

**For a gas, SI = log10(fugacity). Fugacity = pressure * phi / 1 atm.
  For ideal gases, phi = 1.

Reaction step 17.

Using solution 1.	
Using temperature 1.	
Using pressure 1.	
Using reaction 1.	

Reaction 1.	

	  6.184e-02 moles of the following reaction have been added:

	                 Relative
	Reactant            moles

	HCl                  1.00000

	                 Relative
	Element             moles
	Cl                   1.00000
	H                    1.00000

-----------------------------Solution composition------------------------------

	Elements           Molality       Moles

	Cl                6.184e-02   6.184e-02

----------------------------Description of solution----------------------------

                                       pH  =   1.287      Charge balance
                                       pe  =  16.508      Adjusted to redox equilibrium
      Specific Conductance (µS/cm,  25°C)  = 24202
                          Density (g/cm³)  =   0.99814
                               Volume (L)  =   1.00412
                        Viscosity (mPa s)  =   0.89339
                        Activity of water  =   0.998
                 Ionic strength (mol/kgw)  =   6.102e-02
                       Mass of water (kg)  =   1.000e+00
                 Total alkalinity (eq/kg)  =  -6.184e-02
                         Temperature (°C)  =  25.00
                           Pressure (atm)  =  0.03
                  Electrical balance (eq)  =   1.877e-13
 Percent error, 100*(Cat-|An|)/(Cat+|An|)  =   0.00
                               Iterations  =  15
                                  Total H  = 1.110743e+02
                                  Total O  = 5.550622e+01

----------------------------Distribution of species----------------------------

                                               Log       Log       Log    mole V
   Species          Molality    Activity  Molality  Activity     Gamma   cm³/mol

   H+              6.102e-02   5.160e-02    -1.215    -1.287    -0.073      0.00
   OH-             2.454e-13   1.957e-13   -12.610   -12.708    -0.098     -3.84
   H2O             5.551e+01   9.979e-01     1.744    -0.001     0.000     18.07
Cl            6.184e-02
   Cl-             6.102e-02   4.889e-02    -1.215    -1.311    -0.096     18.27
   HCl             8.186e-04   8.690e-04    -3.087    -3.061     0.026     (0)  
H(0)          3.580e-39
   H2              1.790e-39   1.816e-39   -38.747   -38.741     0.006     28.61
O(0)          2.484e-15
   O2              1.242e-15   1.259e-15   -14.906   -14.900     0.006     30.40

------------------------------Saturation indices-------------------------------

  Phase               SI** log IAP   log K(298 K,   0 atm)

  H2(g)           -35.64    -38.74   -3.10  H2
  H2O(g)           -1.50     -0.00    1.50  H2O
  O2(g)           -12.01    -14.90   -2.89  O2

**For a gas, SI = log10(fugacity). Fugacity = pressure * phi / 1 atm.
  For ideal gases, phi = 1.

Reaction step 18.

Using solution 1.	
Using temperature 1.	
Using pressure 1.	
Using reaction 1.	

Reaction 1.	

	  7.539e-02 moles of the following reaction have been added:

	                 Relative
	Reactant            moles

	HCl                  1.00000

	                 Relative
	Element             moles
	Cl                   1.00000
	H                    1.00000

-----------------------------Solution composition------------------------------

	Elements           Molality       Moles

	Cl                7.539e-02   7.539e-02

----------------------------Description of solution----------------------------

                                       pH  =   1.206      Charge balance
                                       pe  =  16.438      Adjusted to redox equilibrium
      Specific Conductance (µS/cm,  25°C)  = 29246
                          Density (g/cm³)  =   0.99839
                               Volume (L)  =   1.00437
                        Viscosity (mPa s)  =   0.89410
                        Activity of water  =   0.997
                 Ionic strength (mol/kgw)  =   7.423e-02
                       Mass of water (kg)  =   1.000e+00
                 Total alkalinity (eq/kg)  =  -7.539e-02
                         Temperature (°C)  =  25.00
                           Pressure (atm)  =  0.03
                  Electrical balance (eq)  =   7.316e-11
 Percent error, 100*(Cat-|An|)/(Cat+|An|)  =   0.00
                               Iterations  =  15
                                  Total H  = 1.110878e+02
                                  Total O  = 5.550622e+01

----------------------------Distribution of species----------------------------

                                               Log       Log       Log    mole V
   Species          Molality    Activity  Molality  Activity     Gamma   cm³/mol

   H+              7.423e-02   6.217e-02    -1.129    -1.206    -0.077      0.00
   OH-             2.072e-13   1.624e-13   -12.684   -12.789    -0.106     -3.80
   H2O             5.551e+01   9.975e-01     1.744    -0.001     0.000     18.07
Cl            7.539e-02
   Cl-             7.423e-02   5.847e-02    -1.129    -1.233    -0.104     18.30
   HCl             1.164e-03   1.252e-03    -2.934    -2.902     0.032     (0)  
H(0)          7.142e-39
   H2              3.571e-39   3.633e-39   -38.447   -38.440     0.007     28.61
O(0)          6.179e-16
   O2              3.089e-16   3.143e-16   -15.510   -15.503     0.007     30.40

------------------------------Saturation indices-------------------------------

  Phase               SI** log IAP   log K(298 K,   0 atm)

  H2(g)           -35.34    -38.44   -3.10  H2
  H2O(g)           -1.50     -0.00    1.50  H2O
  O2(g)           -12.61    -15.50   -2.89  O2

**For a gas, SI = log10(fugacity). Fugacity = pressure * phi / 1 atm.
  For ideal gases, phi = 1.

Reaction step 19.

Using solution 1.	
Using temperature 1.	
Using pressure 1.	
Using reaction 1.	

Reaction 1.	

	  7.969e-02 moles of the following reaction have been added:

	                 Relative
	Reactant            moles

	HCl                  1.00000

	                 Relative
	Element             moles
	Cl                   1.00000
	H                    1.00000

-----------------------------Solution composition------------------------------

	Elements           Molality       Moles

	Cl                7.969e-02   7.969e-02

----------------------------Description of solution----------------------------

                                       pH  =   1.184      Charge balance
                                       pe  =  16.381      Adjusted to redox equilibrium
      Specific Conductance (µS/cm,  25°C)  = 30832
                          Density (g/cm³)  =   0.99847
                               Volume (L)  =   1.00444
                        Viscosity (mPa s)  =   0.89433
                        Activity of water  =   0.997
                 Ionic strength (mol/kgw)  =   7.841e-02
                       Mass of water (kg)  =   1.000e+00
                 Total alkalinity (eq/kg)  =  -7.969e-02
                         Temperature (°C)  =  25.00
                           Pressure (atm)  =  0.03
                  Electrical balance (eq)  =   7.084e-10
 Percent error, 100*(Cat-|An|)/(Cat+|An|)  =   0.00
                               Iterations  =  15
                                  Total H  = 1.110921e+02
                                  Total O  = 5.550622e+01

----------------------------Distribution of species----------------------------

                                               Log       Log       Log    mole V
   Species          Molality    Activity  Molality  Activity     Gamma   cm³/mol

   H+              7.841e-02   6.550e-02    -1.106    -1.184    -0.078      0.00
   OH-             1.977e-13   1.541e-13   -12.704   -12.812    -0.108     -3.79
   H2O             5.551e+01   9.973e-01     1.744    -0.001     0.000     18.07
Cl            7.969e-02
   Cl-             7.841e-02   6.146e-02    -1.106    -1.211    -0.106     18.31
   HCl             1.284e-03   1.387e-03    -2.891    -2.858     0.033     (0)  
H(0)          1.032e-38
   H2              5.161e-39   5.255e-39   -38.287   -38.279     0.008     28.61
O(0)          2.950e-16
   O2              1.475e-16   1.502e-16   -15.831   -15.823     0.008     30.40

------------------------------Saturation indices-------------------------------

  Phase               SI** log IAP   log K(298 K,   0 atm)

  H2(g)           -35.18    -38.28   -3.10  H2
  H2O(g)           -1.50     -0.00    1.50  H2O
  O2(g)           -12.93    -15.82   -2.89  O2

**For a gas, SI = log10(fugacity). Fugacity = pressure * phi / 1 atm.
  For ideal gases, phi = 1.

Reaction step 20.

Using solution 1.	
Using temperature 1.	
Using pressure 1.	
Using reaction 1.	

Reaction 1.	

	  7.993e-02 moles of the following reaction have been added:

	                 Relative
	Reactant            moles

	HCl                  1.00000

	                 Relative
	Element             moles
	Cl                   1.00000
	H                    1.00000

-----------------------------Solution composition------------------------------

	Elements           Molality       Moles

	Cl                7.993e-02   7.993e-02

----------------------------Description of solution----------------------------

                                       pH  =   1.183      Charge balance
                                       pe  =   4.561      Adjusted to redox equilibrium
      Specific Conductance (µS/cm,  25°C)  = 30921
                          Density (g/cm³)  =   0.99847
                               Volume (L)  =   1.00445
                        Viscosity (mPa s)  =   0.89435
                        Activity of water  =   0.997
                 Ionic strength (mol/kgw)  =   7.864e-02
                       Mass of water (kg)  =   1.000e+00
                 Total alkalinity (eq/kg)  =  -7.993e-02
                         Temperature (°C)  =  25.00
                           Pressure (atm)  =  0.03
                  Electrical balance (eq)  =   2.436e-13
 Percent error, 100*(Cat-|An|)/(Cat+|An|)  =   0.00
                               Iterations  =  11
                                  Total H  = 1.110924e+02
                                  Total O  = 5.550622e+01

----------------------------Distribution of species----------------------------

                                               Log       Log       Log    mole V
   Species          Molality    Activity  Molality  Activity     Gamma   cm³/mol

   H+              7.864e-02   6.568e-02    -1.104    -1.183    -0.078      0.00
   OH-             1.971e-13   1.537e-13   -12.705   -12.813    -0.108     -3.79
   H2O             5.551e+01   9.973e-01     1.744    -0.001     0.000     18.07
Cl            7.993e-02
   Cl-             7.864e-02   6.163e-02    -1.104    -1.210    -0.106     18.31
   HCl             1.291e-03   1.394e-03    -2.889    -2.856     0.033     (0)  
H(0)          4.538e-15
   H2              2.269e-15   2.311e-15   -14.644   -14.636     0.008     28.61
O(0)          0.000e+00
   O2              0.000e+00   0.000e+00   -63.118   -63.110     0.008     30.40

------------------------------Saturation indices-------------------------------

  Phase               SI** log IAP   log K(298 K,   0 atm)

  H2(g)           -11.54    -14.64   -3.10  H2
  H2O(g)           -1.50     -0.00    1.50  H2O
  O2(g)           -60.22    -63.11   -2.89  O2

**For a gas, SI = log10(fugacity). Fugacity = pressure * phi / 1 atm.
  For ideal gases, phi = 1.

Reaction step 21.

Using solution 1.	
Using temperature 1.	
Using pressure 1.	
Using reaction 1.	

Reaction 1.	

	  9.071e-02 moles of the following reaction have been added:

	                 Relative
	Reactant            moles

	HCl                  1.00000

	                 Relative
	Element             moles
	Cl                   1.00000
	H                    1.00000

-----------------------------Solution composition------------------------------

	Elements           Molality       Moles

	Cl                9.071e-02   9.071e-02

----------------------------Description of solution----------------------------

                                       pH  =   1.131      Charge balance
                                       pe  =   4.847      Adjusted to redox equilibrium
      Specific Conductance (µS/cm,  25°C)  = 34872
                          Density (g/cm³)  =   0.99867
                               Volume (L)  =   1.00464
                        Viscosity (mPa s)  =   0.89492
                        Activity of water  =   0.997
                 Ionic strength (mol/kgw)  =   8.910e-02
                       Mass of water (kg)  =   1.000e+00
                 Total alkalinity (eq/kg)  =  -9.071e-02
                         Temperature (°C)  =  25.00
                           Pressure (atm)  =  0.03
                  Electrical balance (eq)  =   1.643e-15
 Percent error, 100*(Cat-|An|)/(Cat+|An|)  =   0.00
                               Iterations  =  10
                                  Total H  = 1.111031e+02
                                  Total O  = 5.550622e+01

----------------------------Distribution of species----------------------------

                                               Log       Log       Log    mole V
   Species          Molality    Activity  Molality  Activity     Gamma   cm³/mol

   H+              8.910e-02   7.396e-02    -1.050    -1.131    -0.081      0.00
   OH-             1.771e-13   1.364e-13   -12.752   -12.865    -0.113     -3.76
   H2O             5.551e+01   9.969e-01     1.744    -0.001     0.000     18.07
Cl            9.071e-02
   Cl-             8.910e-02   6.904e-02    -1.050    -1.161    -0.111     18.32
   HCl             1.612e-03   1.759e-03    -2.793    -2.755     0.038     (0)  
H(0)          1.533e-15
   H2              7.667e-16   7.826e-16   -15.115   -15.106     0.009     28.61
O(0)          0.000e+00
   O2              0.000e+00   0.000e+00   -62.179   -62.170     0.009     30.40

------------------------------Saturation indices-------------------------------

  Phase               SI** log IAP   log K(298 K,   0 atm)

  H2(g)           -12.01    -15.11   -3.10  H2
  H2O(g)           -1.50     -0.00    1.50  H2O
  O2(g)           -59.28    -62.17   -2.89  O2

**For a gas, SI = log10(fugacity). Fugacity = pressure * phi / 1 atm.
  For ideal gases, phi = 1.

Reaction step 22.

Using solution 1.	
Using temperature 1.	
Using pressure 1.	
Using reaction 1.	

Reaction 1.	

	  9.898e-02 moles of the following reaction have been added:

	                 Relative
	Reactant            moles

	HCl                  1.00000

	                 Relative
	Element             moles
	Cl                   1.00000
	H                    1.00000

-----------------------------Solution composition------------------------------

	Elements           Molality       Moles

	Cl                9.898e-02   9.898e-02

----------------------------Description of solution----------------------------

                                       pH  =   1.095      Charge balance
                                       pe  =  16.630      Adjusted to redox equilibrium
      Specific Conductance (µS/cm,  25°C)  = 37876
                          Density (g/cm³)  =   0.99882
                               Volume (L)  =   1.00479
                        Viscosity (mPa s)  =   0.89537
                        Activity of water  =   0.997
                 Ionic strength (mol/kgw)  =   9.710e-02
                       Mass of water (kg)  =   1.000e+00
                 Total alkalinity (eq/kg)  =  -9.898e-02
                         Temperature (°C)  =  25.00
                           Pressure (atm)  =  0.03
                  Electrical balance (eq)  =   4.505e-13
 Percent error, 100*(Cat-|An|)/(Cat+|An|)  =   0.00
                               Iterations  =  14
                                  Total H  = 1.111114e+02
                                  Total O  = 5.550622e+01

----------------------------Distribution of species----------------------------

                                               Log       Log       Log    mole V
   Species          Molality    Activity  Molality  Activity     Gamma   cm³/mol

   H+              9.710e-02   8.026e-02    -1.013    -1.095    -0.083      0.00
   OH-             1.646e-13   1.257e-13   -12.784   -12.901    -0.117     -3.74
   H2O             5.551e+01   9.967e-01     1.744    -0.001     0.000     18.07
Cl            9.898e-02
   Cl-             9.710e-02   7.465e-02    -1.013    -1.127    -0.114     18.33
   HCl             1.877e-03   2.064e-03    -2.727    -2.685     0.041     (0)  
H(0)          4.909e-39
   H2              2.455e-39   2.510e-39   -38.610   -38.600     0.010     28.61
O(0)          1.285e-15
   O2              6.427e-16   6.573e-16   -15.192   -15.182     0.010     30.40

------------------------------Saturation indices-------------------------------

  Phase               SI** log IAP   log K(298 K,   0 atm)

  H2(g)           -35.50    -38.60   -3.10  H2
  H2O(g)           -1.50     -0.00    1.50  H2O
  O2(g)           -12.29    -15.18   -2.89  O2

**For a gas, SI = log10(fugacity). Fugacity = pressure * phi / 1 atm.
  For ideal gases, phi = 1.

Reaction step 23.

Using solution 1.	
Using temperature 1.	
Using pressure 1.	
Using reaction 1.	

Reaction 1.	

	  1.001e-01 moles of the following reaction have been added:

	                 Relative
	Reactant            moles

	HCl                  1.00000

	                 Relative
	Element             moles
	Cl                   1.00000
	H                    1.00000

-----------------------------Solution composition------------------------------

	Elements           Molality       Moles

	Cl                1.001e-01   1.001e-01

----------------------------Description of solution----------------------------

                                       pH  =   1.091      Charge balance
                                       pe  =  16.623      Adjusted to redox equilibrium
      Specific Conductance (µS/cm,  25°C)  = 38282
                          Density (g/cm³)  =   0.99885
                               Volume (L)  =   1.00481
                        Viscosity (mPa s)  =   0.89543
                        Activity of water  =   0.997
                 Ionic strength (mol/kgw)  =   9.819e-02
                       Mass of water (kg)  =   1.000e+00
                 Total alkalinity (eq/kg)  =  -1.001e-01
                         Temperature (°C)  =  25.00
                           Pressure (atm)  =  0.03
                  Electrical balance (eq)  =   1.160e-10
 Percent error, 100*(Cat-|An|)/(Cat+|An|)  =   0.00
                               Iterations  =  14
                                  Total H  = 1.111125e+02
                                  Total O  = 5.550622e+01

----------------------------Distribution of species----------------------------

                                               Log       Log       Log    mole V
   Species          Molality    Activity  Molality  Activity     Gamma   cm³/mol

   H+              9.819e-02   8.111e-02    -1.008    -1.091    -0.083      0.00
   OH-             1.630e-13   1.244e-13   -12.788   -12.905    -0.117     -3.74
   H2O             5.551e+01   9.966e-01     1.744    -0.001     0.000     18.07
Cl            1.001e-01
   Cl-             9.819e-02   7.540e-02    -1.008    -1.123    -0.115     18.34
   HCl             1.914e-03   2.107e-03    -2.718    -2.676     0.042     (0)  
H(0)          5.160e-39
   H2              2.580e-39   2.639e-39   -38.588   -38.579     0.010     28.61
O(0)          1.162e-15
   O2              5.812e-16   5.945e-16   -15.236   -15.226     0.010     30.40

------------------------------Saturation indices-------------------------------

  Phase               SI** log IAP   log K(298 K,   0 atm)

  H2(g)           -35.48    -38.58   -3.10  H2
  H2O(g)           -1.50     -0.00    1.50  H2O
  O2(g)           -12.33    -15.23   -2.89  O2

**For a gas, SI = log10(fugacity). Fugacity = pressure * phi / 1 atm.
  For ideal gases, phi = 1.

Reaction step 24.

Using solution 1.	
Using temperature 1.	
Using pressure 1.	
Using reaction 1.	

Reaction 1.	

	  1.159e-01 moles of the following reaction have been added:

	                 Relative
	Reactant            moles

	HCl                  1.00000

	                 Relative
	Element             moles
	Cl                   1.00000
	H                    1.00000

-----------------------------Solution composition------------------------------

	Elements           Molality       Moles

	Cl                1.159e-01   1.159e-01

----------------------------Description of solution----------------------------

                                       pH  =   1.031      Charge balance
                                       pe  =  16.732      Adjusted to redox equilibrium
      Specific Conductance (µS/cm,  25°C)  = 43964
                          Density (g/cm³)  =   0.99914
                               Volume (L)  =   1.00509
                        Viscosity (mPa s)  =   0.89628
                        Activity of water  =   0.996
                 Ionic strength (mol/kgw)  =   1.134e-01
                       Mass of water (kg)  =   1.000e+00
                 Total alkalinity (eq/kg)  =  -1.159e-01
                         Temperature (°C)  =  25.00
                           Pressure (atm)  =  0.03
                  Electrical balance (eq)  =  -2.300e-17
 Percent error, 100*(Cat-|An|)/(Cat+|An|)  =  -0.00
                               Iterations  =  14
                                  Total H  = 1.111283e+02
                                  Total O  = 5.550622e+01

----------------------------Distribution of species----------------------------

                                               Log       Log       Log    mole V
   Species          Molality    Activity  Molality  Activity     Gamma   cm³/mol

   H+              1.134e-01   9.304e-02    -0.945    -1.031    -0.086      0.00
   OH-             1.441e-13   1.084e-13   -12.841   -12.965    -0.124     -3.70
   H2O             5.551e+01   9.961e-01     1.744    -0.002     0.000     18.07
Cl            1.159e-01
   Cl-             1.134e-01   8.592e-02    -0.945    -1.066    -0.121     18.36
   HCl             2.464e-03   2.754e-03    -2.608    -2.560     0.048     (0)  
H(0)          4.101e-39
   H2              2.050e-39   2.105e-39   -38.688   -38.677     0.011     28.61
O(0)          1.820e-15
   O2              9.098e-16   9.339e-16   -15.041   -15.030     0.011     30.40

------------------------------Saturation indices-------------------------------

  Phase               SI** log IAP   log K(298 K,   0 atm)

  H2(g)           -35.58    -38.68   -3.10  H2
  H2O(g)           -1.50     -0.00    1.50  H2O
  O2(g)           -12.14    -15.03   -2.89  O2

**For a gas, SI = log10(fugacity). Fugacity = pressure * phi / 1 atm.
  For ideal gases, phi = 1.

Reaction step 25.

Using solution 1.	
Using temperature 1.	
Using pressure 1.	
Using reaction 1.	

Reaction 1.	

	  1.240e-01 moles of the following reaction have been added:

	                 Relative
	Reactant            moles

	HCl                  1.00000

	                 Relative
	Element             moles
	Cl                   1.00000
	H                    1.00000

-----------------------------Solution composition------------------------------

	Elements           Molality       Moles

	Cl                1.240e-01   1.240e-01

----------------------------Description of solution----------------------------

                                       pH  =   1.004      Charge balance
                                       pe  =  16.794      Adjusted to redox equilibrium
      Specific Conductance (µS/cm,  25°C)  = 46851
                          Density (g/cm³)  =   0.99929
                               Volume (L)  =   1.00524
                        Viscosity (mPa s)  =   0.89672
                        Activity of water  =   0.996
                 Ionic strength (mol/kgw)  =   1.212e-01
                       Mass of water (kg)  =   1.000e+00
                 Total alkalinity (eq/kg)  =  -1.240e-01
                         Temperature (°C)  =  25.00
                           Pressure (atm)  =  0.03
                  Electrical balance (eq)  =   8.968e-10
 Percent error, 100*(Cat-|An|)/(Cat+|An|)  =   0.00
                               Iterations  =  13
                                  Total H  = 1.111364e+02
                                  Total O  = 5.550622e+01

----------------------------Distribution of species----------------------------

                                               Log       Log       Log    mole V
   Species          Molality    Activity  Molality  Activity     Gamma   cm³/mol

   H+              1.212e-01   9.911e-02    -0.916    -1.004    -0.088      0.00
   OH-             1.362e-13   1.017e-13   -12.866   -12.993    -0.127     -3.68
   H2O             5.551e+01   9.958e-01     1.744    -0.002     0.000     18.07
Cl            1.240e-01
   Cl-             1.212e-01   9.124e-02    -0.916    -1.040    -0.123     18.37
   HCl             2.766e-03   3.115e-03    -2.558    -2.507     0.052     (0)  
H(0)          3.489e-39
   H2              1.744e-39   1.794e-39   -38.758   -38.746     0.012     28.61
O(0)          2.499e-15
   O2              1.249e-15   1.285e-15   -14.903   -14.891     0.012     30.40

------------------------------Saturation indices-------------------------------

  Phase               SI** log IAP   log K(298 K,   0 atm)

  H2(g)           -35.65    -38.75   -3.10  H2
  H2O(g)           -1.50     -0.00    1.50  H2O
  O2(g)           -12.00    -14.89   -2.89  O2

**For a gas, SI = log10(fugacity). Fugacity = pressure * phi / 1 atm.
  For ideal gases, phi = 1.

Reaction step 26.

Using solution 1.	
Using temperature 1.	
Using pressure 1.	
Using reaction 1.	

Reaction 1.	

	  1.257e-01 moles of the following reaction have been added:

	                 Relative
	Reactant            moles

	HCl                  1.00000

	                 Relative
	Element             moles
	Cl                   1.00000
	H                    1.00000

-----------------------------Solution composition------------------------------

	Elements           Molality       Moles

	Cl                1.256e-01   1.257e-01

----------------------------Description of solution----------------------------

                                       pH  =   0.999      Charge balance
                                       pe  =  16.835      Adjusted to redox equilibrium
      Specific Conductance (µS/cm,  25°C)  = 47437
                          Density (g/cm³)  =   0.99932
[...]

  H2(g)           -40.28    -43.38   -3.10  H2
  H2O(g)           -1.66     -0.15    1.50  H2O
  N2(g)            -3.15     -6.33   -3.18  N2
  O2(g)            -3.04     -5.93   -2.89  O2

**For a gas, SI = log10(fugacity). Fugacity = pressure * phi / 1 atm.
  For ideal gases, phi = 1.

Reaction step 76.

Using solution 1.	
Using temperature 1.	
Using pressure 1.	
Using reaction 1.	

Reaction 1.	

	  9.224e+00 moles of the following reaction have been added:

	                 Relative
	Reactant            moles

	NaNO3                1.00000

	                 Relative
	Element             moles
	N                    1.00000
	Na                   1.00000
	O                    3.00000

-----------------------------Solution composition------------------------------

	Elements           Molality       Moles

	N                 9.224e+00   9.224e+00
	Na                9.224e+00   9.224e+00

----------------------------Description of solution----------------------------

                                       pH  =   7.150      Charge balance
                                       pe  =  12.972      Adjusted to redox equilibrium
      Specific Conductance (µS/cm,  25°C)  = 215533
                          Density (g/cm³)  =   1.34531
                               Volume (L)  =   1.32609
                        Viscosity (mPa s)  =   2.34956
                        Activity of water  =   0.686
                 Ionic strength (mol/kgw)  =   9.224e+00
                       Mass of water (kg)  =   1.000e+00
                 Total alkalinity (eq/kg)  =   1.161e-07
                         Temperature (°C)  =  25.00
                  Electrical balance (eq)  =   2.243e-08
 Percent error, 100*(Cat-|An|)/(Cat+|An|)  =   0.00
                               Iterations  =  13
                                  Total H  = 1.110124e+02
                                  Total O  = 8.317822e+01

----------------------------Distribution of species----------------------------

                                               Log       Log       Log    mole V
   Species          Molality    Activity  Molality  Activity     Gamma   cm³/mol

   OH-             2.173e-07   9.820e-08    -6.663    -7.008    -0.345      8.78
   H+              1.011e-07   7.075e-08    -6.995    -7.150    -0.155      0.00
   H2O             5.551e+01   6.864e-01     1.744    -0.163     0.000     18.07
H(0)          0.000e+00
   H2              0.000e+00   0.000e+00   -44.318   -43.396     0.922     28.61
N(0)          1.161e-07
   N2              5.806e-08   4.856e-07    -7.236    -6.314     0.922     29.29
N(3)          2.837e-11
   NO2-            2.837e-11   1.161e-11   -10.547   -10.935    -0.388     27.80
N(5)          9.224e+00
   NO3-            9.224e+00   3.776e+00     0.965     0.577    -0.388     33.14
Na            9.224e+00
   Na+             9.224e+00   2.605e+01     0.965     1.416     0.451      1.89
   NaOH            3.058e-17   2.558e-16   -16.514   -15.592     0.922     (0)  
O(0)          2.903e-07
   O2              1.452e-07   1.214e-06    -6.838    -5.916     0.922     30.40

------------------------------Saturation indices-------------------------------

  Phase               SI** log IAP   log K(298 K,   1 atm)

  H2(g)           -40.29    -43.40   -3.10  H2
  H2O(g)           -1.67     -0.16    1.50  H2O
  N2(g)            -3.14     -6.31   -3.18  N2
  O2(g)            -3.02     -5.92   -2.89  O2

**For a gas, SI = log10(fugacity). Fugacity = pressure * phi / 1 atm.
  For ideal gases, phi = 1.

Reaction step 77.

Using solution 1.	
Using temperature 1.	
Using pressure 1.	
Using reaction 1.	

Reaction 1.	

	  9.260e+00 moles of the following reaction have been added:

	                 Relative
	Reactant            moles

	NaNO3                1.00000

	                 Relative
	Element             moles
	N                    1.00000
	Na                   1.00000
	O                    3.00000

-----------------------------Solution composition------------------------------

	Elements           Molality       Moles

	N                 9.260e+00   9.260e+00
	Na                9.260e+00   9.260e+00

----------------------------Description of solution----------------------------

                                       pH  =   7.150      Charge balance
                                       pe  =  12.974      Adjusted to redox equilibrium
      Specific Conductance (µS/cm,  25°C)  = 215617
                          Density (g/cm³)  =   1.34619
                               Volume (L)  =   1.32749
                        Viscosity (mPa s)  =   2.35885
                        Activity of water  =   0.685
                 Ionic strength (mol/kgw)  =   9.260e+00
                       Mass of water (kg)  =   1.000e+00
                 Total alkalinity (eq/kg)  =   1.155e-07
                         Temperature (°C)  =  25.00
                  Electrical balance (eq)  =   1.863e-08
 Percent error, 100*(Cat-|An|)/(Cat+|An|)  =   0.00
                               Iterations  =  13
                                  Total H  = 1.110124e+02
                                  Total O  = 8.328559e+01

----------------------------Distribution of species----------------------------

                                               Log       Log       Log    mole V
   Species          Molality    Activity  Molality  Activity     Gamma   cm³/mol

   OH-             2.167e-07   9.794e-08    -6.664    -7.009    -0.345      8.83
   H+              1.012e-07   7.081e-08    -6.995    -7.150    -0.155      0.00
   H2O             5.551e+01   6.852e-01     1.744    -0.164     0.000     18.07
H(0)          0.000e+00
   H2              0.000e+00   0.000e+00   -44.323   -43.397     0.926     28.61
N(0)          1.155e-07
   N2              5.775e-08   4.870e-07    -7.238    -6.312     0.926     29.29
N(3)          2.843e-11
   NO2-            2.843e-11   1.163e-11   -10.546   -10.934    -0.388     27.81
N(5)          9.260e+00
   NO3-            9.260e+00   3.789e+00     0.967     0.578    -0.388     33.15
Na            9.260e+00
   Na+             9.260e+00   2.632e+01     0.967     1.420     0.454      1.90
   NaOH            3.057e-17   2.578e-16   -16.515   -15.589     0.926     (0)  
O(0)          2.888e-07
   O2              1.444e-07   1.218e-06    -6.840    -5.914     0.926     30.40

------------------------------Saturation indices-------------------------------

  Phase               SI** log IAP   log K(298 K,   1 atm)

  H2(g)           -40.30    -43.40   -3.10  H2
  H2O(g)           -1.67     -0.16    1.50  H2O
  N2(g)            -3.14     -6.31   -3.18  N2
  O2(g)            -3.02     -5.91   -2.89  O2

**For a gas, SI = log10(fugacity). Fugacity = pressure * phi / 1 atm.
  For ideal gases, phi = 1.

Reaction step 78.

Using solution 1.	
Using temperature 1.	
Using pressure 1.	
Using reaction 1.	

Reaction 1.	

	  9.970e+00 moles of the following reaction have been added:

	                 Relative
	Reactant            moles

	NaNO3                1.00000

	                 Relative
	Element             moles
	N                    1.00000
	Na                   1.00000
	O                    3.00000

-----------------------------Solution composition------------------------------

	Elements           Molality       Moles

	N                 9.970e+00   9.970e+00
	Na                9.970e+00   9.970e+00

----------------------------Description of solution----------------------------

                                       pH  =   7.143      Charge balance
                                       pe  =  12.995      Adjusted to redox equilibrium
      Specific Conductance (µS/cm,  25°C)  = 216893
                          Density (g/cm³)  =   1.36306
                               Volume (L)  =   1.35532
                        Viscosity (mPa s)  =   2.54857
                        Activity of water  =   0.661
                 Ionic strength (mol/kgw)  =   9.970e+00
                       Mass of water (kg)  =   1.000e+00
                 Total alkalinity (eq/kg)  =   1.039e-07
                         Temperature (°C)  =  25.00
                  Electrical balance (eq)  =   2.691e-10
 Percent error, 100*(Cat-|An|)/(Cat+|An|)  =   0.00
                               Iterations  =  13
                                  Total H  = 1.110124e+02
                                  Total O  = 8.541520e+01

----------------------------Distribution of species----------------------------

                                               Log       Log       Log    mole V
   Species          Molality    Activity  Molality  Activity     Gamma   cm³/mol

   OH-             2.070e-07   9.292e-08    -6.684    -7.032    -0.348      9.71
   H+              1.031e-07   7.201e-08    -6.987    -7.143    -0.156      0.00
   H2O             5.551e+01   6.610e-01     1.744    -0.180     0.000     18.07
H(0)          0.000e+00
   H2              0.000e+00   0.000e+00   -44.422   -43.425     0.997     28.61
N(0)          1.039e-07
   N2              5.194e-08   5.158e-07    -7.285    -6.288     0.997     29.29
N(3)          2.975e-11
   NO2-            2.975e-11   1.207e-11   -10.527   -10.918    -0.392     27.92
N(5)          9.970e+00
   NO3-            9.970e+00   4.046e+00     0.999     0.607    -0.392     33.32
Na            9.970e+00
   Na+             9.970e+00   3.224e+01     0.999     1.508     0.510      2.02
   NaOH            3.017e-17   2.996e-16   -16.520   -15.524     0.997     (0)  
O(0)          2.597e-07
   O2              1.299e-07   1.290e-06    -6.887    -5.890     0.997     30.40

------------------------------Saturation indices-------------------------------

  Phase               SI** log IAP   log K(298 K,   1 atm)

  H2(g)           -40.32    -43.42   -3.10  H2
  H2O(g)           -1.68     -0.18    1.50  H2O
  N2(g)            -3.11     -6.29   -3.18  N2
  O2(g)            -3.00     -5.89   -2.89  O2

**For a gas, SI = log10(fugacity). Fugacity = pressure * phi / 1 atm.
  For ideal gases, phi = 1.

Reaction step 79.

Using solution 1.	
Using temperature 1.	
Using pressure 1.	
Using reaction 1.	

Reaction 1.	

	  1.063e+01 moles of the following reaction have been added:

	                 Relative
	Reactant            moles

	NaNO3                1.00000

	                 Relative
	Element             moles
	N                    1.00000
	Na                   1.00000
	O                    3.00000

-----------------------------Solution composition------------------------------

	Elements           Molality       Moles

	N                 1.063e+01   1.063e+01
	Na                1.063e+01   1.063e+01

----------------------------Description of solution----------------------------

                                       pH  =   7.137      Charge balance
                                       pe  =  13.014      Adjusted to redox equilibrium
      Specific Conductance (µS/cm,  25°C)  = 217477
                          Density (g/cm³)  =   1.37781
                               Volume (L)  =   1.38144
                        Viscosity (mPa s)  =   2.73390
                        Activity of water  =   0.639
                 Ionic strength (mol/kgw)  =   1.063e+01
                       Mass of water (kg)  =   1.000e+00
                 Total alkalinity (eq/kg)  =   9.384e-08
                         Temperature (°C)  =  25.00
                  Electrical balance (eq)  =   1.127e-12
 Percent error, 100*(Cat-|An|)/(Cat+|An|)  =   0.00
                               Iterations  =  13
                                  Total H  = 1.110124e+02
                                  Total O  = 8.739064e+01

----------------------------Distribution of species----------------------------

                                               Log       Log       Log    mole V
   Species          Molality    Activity  Molality  Activity     Gamma   cm³/mol

   OH-             1.984e-07   8.859e-08    -6.702    -7.053    -0.350     10.52
   H+              1.046e-07   7.297e-08    -6.981    -7.137    -0.156      0.00
   H2O             5.551e+01   6.386e-01     1.744    -0.195     0.000     18.07
H(0)          0.000e+00
   H2              0.000e+00   0.000e+00   -44.514   -43.451     1.063     28.61
N(0)          9.384e-08
   N2              4.692e-08   5.422e-07    -7.329    -6.266     1.063     29.29
N(3)          3.093e-11
   NO2-            3.093e-11   1.246e-11   -10.510   -10.904    -0.395     28.01
N(5)          1.063e+01
   NO3-            1.063e+01   4.283e+00     1.026     0.632    -0.395     33.47
Na            1.063e+01
   Na+             1.063e+01   3.875e+01     1.026     1.588     0.562      2.14
   NaOH            2.971e-17   3.433e-16   -16.527   -15.464     1.063     (0)  
O(0)          2.346e-07
   O2              1.173e-07   1.356e-06    -6.931    -5.868     1.063     30.40

------------------------------Saturation indices-------------------------------

  Phase               SI** log IAP   log K(298 K,   1 atm)

  H2(g)           -40.35    -43.45   -3.10  H2
  H2O(g)           -1.70     -0.19    1.50  H2O
  N2(g)            -3.09     -6.27   -3.18  N2
  O2(g)            -2.98     -5.87   -2.89  O2

**For a gas, SI = log10(fugacity). Fugacity = pressure * phi / 1 atm.
  For ideal gases, phi = 1.

Reaction step 80.

Using solution 1.	
Using temperature 1.	
Using pressure 1.	
Using reaction 1.	

Reaction 1.	

	  1.076e+01 moles of the following reaction have been added:

	                 Relative
	Reactant            moles

	NaNO3                1.00000

	                 Relative
	Element             moles
	N                    1.00000
	Na                   1.00000
	O                    3.00000

-----------------------------Solution composition------------------------------

	Elements           Molality       Moles

	N                 1.076e+01   1.076e+01
	Na                1.076e+01   1.076e+01

----------------------------Description of solution----------------------------

                                       pH  =   7.136      Charge balance
                                       pe  =  13.017      Adjusted to redox equilibrium
      Specific Conductance (µS/cm,  25°C)  = 217531
                          Density (g/cm³)  =   1.38056
                               Volume (L)  =   1.38652
                        Viscosity (mPa s)  =   2.77073
                        Activity of water  =   0.634
                 Ionic strength (mol/kgw)  =   1.076e+01
                       Mass of water (kg)  =   1.000e+00
                 Total alkalinity (eq/kg)  =   9.198e-08
                         Temperature (°C)  =  25.00
                  Electrical balance (eq)  =   4.564e-13
 Percent error, 100*(Cat-|An|)/(Cat+|An|)  =   0.00
                               Iterations  =  13
                                  Total H  = 1.110124e+02
                                  Total O  = 8.777224e+01

----------------------------Distribution of species----------------------------

                                               Log       Log       Log    mole V
   Species          Molality    Activity  Molality  Activity     Gamma   cm³/mol

   OH-             1.968e-07   8.779e-08    -6.706    -7.057    -0.351     10.68
   H+              1.048e-07   7.313e-08    -6.979    -7.136    -0.156      0.00
   H2O             5.551e+01   6.343e-01     1.744    -0.198     0.000     18.07
H(0)          0.000e+00
   H2              0.000e+00   0.000e+00   -44.531   -43.456     1.076     28.61
N(0)          9.198e-08
   N2              4.599e-08   5.473e-07    -7.337    -6.262     1.076     29.29
N(3)          3.115e-11
   NO2-            3.115e-11   1.254e-11   -10.506   -10.902    -0.395     28.03
N(5)          1.076e+01
   NO3-            1.076e+01   4.329e+00     1.032     0.636    -0.395     33.50
Na            1.076e+01
   Na+             1.076e+01   4.014e+01     1.032     1.604     0.572      2.16
   NaOH            2.961e-17   3.524e-16   -16.529   -15.453     1.076     (0)  
O(0)          2.300e-07
   O2              1.150e-07   1.368e-06    -6.939    -5.864     1.076     30.40

------------------------------Saturation indices-------------------------------

  Phase               SI** log IAP   log K(298 K,   1 atm)

  H2(g)           -40.35    -43.46   -3.10  H2
  H2O(g)           -1.70     -0.20    1.50  H2O
  N2(g)            -3.09     -6.26   -3.18  N2
  O2(g)            -2.97     -5.86   -2.89  O2

**For a gas, SI = log10(fugacity). Fugacity = pressure * phi / 1 atm.
  For ideal gases, phi = 1.

Reaction step 81.

Using solution 1.	
Using temperature 1.	
Using pressure 1.	
Using reaction 1.	

Reaction 1.	

	  1.127e+01 moles of the following reaction have been added:

	                 Relative
	Reactant            moles

	NaNO3                1.00000

	                 Relative
	Element             moles
	N                    1.00000
	Na                   1.00000
	O                    3.00000

-----------------------------Solution composition------------------------------

	Elements           Molality       Moles

	N                 1.127e+01   1.127e+01
	Na                1.127e+01   1.127e+01

----------------------------Description of solution----------------------------

                                       pH  =   7.132      Charge balance
                                       pe  =  13.031      Adjusted to redox equilibrium
      Specific Conductance (µS/cm,  25°C)  = 217570
                          Density (g/cm³)  =   1.39133
                               Volume (L)  =   1.40708
                        Viscosity (mPa s)  =   2.92240
                        Activity of water  =   0.617
                 Ionic strength (mol/kgw)  =   1.127e+01
                       Mass of water (kg)  =   1.000e+00
                 Total alkalinity (eq/kg)  =   8.478e-08
                         Temperature (°C)  =  25.00
                  Electrical balance (eq)  =   5.078e-14
 Percent error, 100*(Cat-|An|)/(Cat+|An|)  =   0.00
                               Iterations  =  13
                                  Total H  = 1.110124e+02
                                  Total O  = 8.930905e+01

----------------------------Distribution of species----------------------------

                                               Log       Log       Log    mole V
   Species          Molality    Activity  Molality  Activity     Gamma   cm³/mol

   OH-             1.906e-07   8.467e-08    -6.720    -7.072    -0.352     11.31
   H+              1.058e-07   7.374e-08    -6.976    -7.132    -0.157      0.00
   H2O             5.551e+01   6.169e-01     1.744    -0.210     0.000     18.07
H(0)          0.000e+00
   H2              0.000e+00   0.000e+00   -44.603   -43.476     1.127     28.61
N(0)          8.478e-08
   N2              4.239e-08   5.676e-07    -7.373    -6.246     1.127     29.29
N(3)          3.205e-11
   NO2-            3.205e-11   1.284e-11   -10.494   -10.892    -0.397     28.10
N(5)          1.127e+01
   NO3-            1.127e+01   4.513e+00     1.052     0.654    -0.397     33.62
Na            1.127e+01
   Na+             1.127e+01   4.618e+01     1.052     1.664     0.613      2.24
   NaOH            2.920e-17   3.910e-16   -16.535   -15.408     1.127     (0)  
O(0)          2.120e-07
   O2              1.060e-07   1.419e-06    -6.975    -5.848     1.127     30.40

------------------------------Saturation indices-------------------------------

  Phase               SI** log IAP   log K(298 K,   1 atm)

  H2(g)           -40.37    -43.48   -3.10  H2
  H2O(g)           -1.71     -0.21    1.50  H2O
  N2(g)            -3.07     -6.25   -3.18  N2
  O2(g)            -2.96     -5.85   -2.89  O2

**For a gas, SI = log10(fugacity). Fugacity = pressure * phi / 1 atm.
  For ideal gases, phi = 1.

------------------
End of simulation.
------------------

-------------------------------------
Reading input data for simulation 11.
-------------------------------------

