   Input file: Vm_salt_65
  Output file: Vm_salt_65.out
Database file: ../database/phreeqc.dat

------------------
Reading data base.
------------------

	SOLUTION_MASTER_SPECIES
	SOLUTION_SPECIES
	PHASES
	EXCHANGE_MASTER_SPECIES
	EXCHANGE_SPECIES
	SURFACE_MASTER_SPECIES
	SURFACE_SPECIES
	RATES
	END
------------------------------------
Reading input data for simulation 1.
------------------------------------

	DATABASE ../database/phreeqc.dat
	SOLUTION 1
	 pH 7 charge
	END
-------------------------------------------
Beginning of initial solution calculations.
-------------------------------------------

Initial solution 1.	

-----------------------------Solution composition------------------------------

	Elements           Molality       Moles

	Pure water     

----------------------------Description of solution----------------------------

                                       pH  =   7.000      Charge balance
                                       pe  =   4.000    
       Specific Conductance (uS/cm, 25 oC) = 0
                          Density (g/cm3)  =   0.99704
                        Activity of water  =   1.000
                           Ionic strength  =  1.001e-007
                       Mass of water (kg)  =  1.000e+000
                 Total alkalinity (eq/kg)  =  6.310e-018
                    Total carbon (mol/kg)  =  0.000e+000
                       Total CO2 (mol/kg)  =  0.000e+000
                      Temperature (deg C)  =  25.00
                  Electrical balance (eq)  = -6.310e-018
 Percent error, 100*(Cat-|An|)/(Cat+|An|)  =  -0.00
                               Iterations  =   2
                                  Total H  = 1.110124e+002
                                  Total O  = 5.550622e+001

----------------------------Distribution of species----------------------------

                                               Log       Log       Log    mole V
   Species          Molality    Activity  Molality  Activity     Gamma   cm3/mol

   OH-            1.001e-007  1.001e-007    -6.999    -7.000    -0.000     -4.11
   H+             1.001e-007  1.001e-007    -6.999    -7.000    -0.000      0.00
   H2O            5.551e+001  1.000e+000     1.744    -0.000     0.000     18.07
H(0)         1.419e-025
   H2             7.095e-026  7.095e-026   -25.149   -25.149     0.000     28.61
O(0)         0.000e+000
   O2             0.000e+000  0.000e+000   -42.082   -42.082     0.000     30.40

------------------------------Saturation indices-------------------------------

	Phase               SI   log IAP   log K(298 K,   1 atm)

	H2(g)           -22.05    -25.15   -3.10  H2
	H2O(g)           -1.50     -0.00    1.50  H2O
	O2(g)           -39.19    -42.08   -2.89  O2


------------------
End of simulation.
------------------

------------------------------------
Reading input data for simulation 2.
------------------------------------

	USE solution 1
	REACTION_TEMPERATURE
	 65.000000
	REACTION_PRESSURE
	 0.000000
	REACTION
	 HCl 1
	0 1.203100 1.483900 1.618400 1.851100 2.095800 2.114800 2.195000 2.264800 2.395500 2.457900 2.764100 2.957400
	USER_GRAPH
	 -headings HCl
	-axis_titles "(Ionic Strength)^0.5 / (mol/kg H2O)^0.5" "molar volume / (cm3/mol)"
	-axis_scale x_axis 0 3
	-axis_scale y_axis 14 32
	10 data 0, 19.163098, 19.323853, 19.388113, 19.490484, 19.578167, 19.581691, 19.606290, 19.626931, 19.657965, 19.670590, 19.713658, 19.722742,
	20 dim d(13)
	30 read d(1), d(2), d(3), d(4), d(5), d(6), d(7), d(8), d(9), d(10), d(11), d(12), d(13),
	40 if step_no = 1 then put(rho, 10)
	50 if step_no > 1 then Vmol = (1e3 + tot("Cl") * 36.461) / (tot("Cl") * rho) - 1e3 / (tot("Cl") * get(10))
	60 if step_no = 1 then dif = 0 else dif = Vmol - d(step_no)
	62 if tot("Cl") > 10 or tc > 200 then goto 150
	100 if step_no = 1 then goto 150
	110 plot_xy mu^0.5, d(step_no), symbol = Triangle, line_w = 0, color = Blue
	120 plot_xy mu^0.5, Vmol, symbol = None, color = Blue, line_width = 2
	122 if step_no > 3 then goto 150
	130 V0 = 18.02
	134 if step_no = 2 then plot_xy 0, V0, symbol = None, color = Blue, line_width = 2 else                        plot_xy 4, V0 + DH_Av * 4 * 0.5, symbol = None, color = Blue, line_width = 1
	150 end
	END
-----------------------------------------
Beginning of batch-reaction calculations.
-----------------------------------------

Reaction step 1.

Using solution 1.	
Using temperature 1.	
Using pressure 1.	
Using reaction 1.	

Reaction 1.	

	 0.000e+000 moles of the following reaction have been added:

	                 Relative
	Reactant            moles

	HCl                  1.00000

	                 Relative
	Element             moles
	Cl                   1.00000
	H                    1.00000

-----------------------------Solution composition------------------------------

	Elements           Molality       Moles

	Pure water     

----------------------------Description of solution----------------------------

                                       pH  =   6.450      Charge balance
                                       pe  =   0.649      Adjusted to redox equilibrium
       Specific Conductance (uS/cm, 65 oC) = 0
                          Density (g/cm3)  =   0.98051
                        Activity of water  =   1.000
                           Ionic strength  =  3.548e-007
                       Mass of water (kg)  =  1.000e+000
                 Total alkalinity (eq/kg)  = -9.733e-018
                    Total carbon (mol/kg)  =  0.000e+000
                       Total CO2 (mol/kg)  =  0.000e+000
                      Temperature (deg C)  =  65.00
                           Pressure (atm)  =  0.25
                  Electrical balance (eq)  =  9.733e-018
 Percent error, 100*(Cat-|An|)/(Cat+|An|)  =   0.00
                               Iterations  =   9
                                  Total H  = 1.110124e+002
                                  Total O  = 5.550622e+001

----------------------------Distribution of species----------------------------

                                               Log       Log       Log    mole V
   Species          Molality    Activity  Molality  Activity     Gamma   cm3/mol

   H+             3.548e-007  3.545e-007    -6.450    -6.450    -0.000      0.00
   OH-            3.548e-007  3.545e-007    -6.450    -6.450    -0.000     -4.06
   H2O            5.551e+001  1.000e+000     1.744    -0.000     0.000     18.37
H(0)         6.310e-018
   H2             3.155e-018  3.155e-018   -17.501   -17.501     0.000     28.58
O(0)         0.000e+000
   O2             0.000e+000  0.000e+000   -45.996   -45.996     0.000     32.59

------------------------------Saturation indices-------------------------------

	Phase               SI   log IAP   log K(338 K,   0 atm)

	H2(g)           -14.36    -17.50   -3.14  H2
	H2O(g)           -0.61     -0.00    0.61  H2O
	O2(g)           -42.92    -46.00   -3.08  O2


Reaction step 2.

Using solution 1.	
Using temperature 1.	
Using pressure 1.	
Using reaction 1.	

Reaction 1.	

	 1.203e+000 moles of the following reaction have been added:

	                 Relative
	Reactant            moles

	HCl                  1.00000

	                 Relative
	Element             moles
	Cl                   1.00000
	H                    1.00000

-----------------------------Solution composition------------------------------

	Elements           Molality       Moles

	Cl               1.203e+000  1.203e+000

----------------------------Description of solution----------------------------

                                       pH  =   0.060      Charge balance
                                       pe  =   5.478      Adjusted to redox equilibrium
       Specific Conductance (uS/cm, 65 oC) = 707478
                          Density (g/cm3)  =   1.00082
                        Activity of water  =   0.959
                           Ionic strength  =  1.203e+000
                       Mass of water (kg)  =  1.000e+000
                 Total alkalinity (eq/kg)  = -1.203e+000
                    Total carbon (mol/kg)  =  0.000e+000
                       Total CO2 (mol/kg)  =  0.000e+000
                      Temperature (deg C)  =  65.00
                           Pressure (atm)  =  0.25
                  Electrical balance (eq)  =  9.426e-009
 Percent error, 100*(Cat-|An|)/(Cat+|An|)  =   0.00
                               Iterations  =  14
                                  Total H  = 1.122155e+002
                                  Total O  = 5.550622e+001

----------------------------Distribution of species----------------------------

                                               Log       Log       Log    mole V
   Species          Molality    Activity  Molality  Activity     Gamma   cm3/mol

   H+             1.203e+000  8.707e-001     0.080    -0.060    -0.140      0.00
   OH-            2.546e-013  1.384e-013   -12.594   -12.859    -0.265     -0.69
   H2O            5.551e+001  9.591e-001     1.744    -0.018     0.000     18.37
Cl           1.203e+000
   Cl-            1.203e+000  6.819e-001     0.080    -0.166    -0.247     19.23
H(0)         6.352e-015
   H2             3.176e-015  4.190e-015   -14.498   -14.378     0.120     28.58
O(0)         0.000e+000
   O2             0.000e+000  0.000e+000   -52.399   -52.279     0.120     32.59

------------------------------Saturation indices-------------------------------

	Phase               SI   log IAP   log K(338 K,   0 atm)

	H2(g)           -11.24    -14.38   -3.14  H2
	H2O(g)           -0.63     -0.02    0.61  H2O
	O2(g)           -49.20    -52.28   -3.08  O2


Reaction step 3.

Using solution 1.	
Using temperature 1.	
Using pressure 1.	
Using reaction 1.	

Reaction 1.	

	 1.484e+000 moles of the following reaction have been added:

	                 Relative
	Reactant            moles

	HCl                  1.00000

	                 Relative
	Element             moles
	Cl                   1.00000
	H                    1.00000

-----------------------------Solution composition------------------------------

	Elements           Molality       Moles

	Cl               1.484e+000  1.484e+000

----------------------------Description of solution----------------------------

                                       pH  =  -0.028      Charge balance
                                       pe  =   5.166      Adjusted to redox equilibrium
       Specific Conductance (uS/cm, 65 oC) = 826339
                          Density (g/cm3)  =   1.00524
                        Activity of water  =   0.950
                           Ionic strength  =  1.484e+000
                       Mass of water (kg)  =  1.000e+000
                 Total alkalinity (eq/kg)  = -1.484e+000
                    Total carbon (mol/kg)  =  0.000e+000
                       Total CO2 (mol/kg)  =  0.000e+000
                      Temperature (deg C)  =  65.00
                           Pressure (atm)  =  0.25
                  Electrical balance (eq)  =  3.016e-010
 Percent error, 100*(Cat-|An|)/(Cat+|An|)  =   0.00
                               Iterations  =  12
                                  Total H  = 1.124963e+002
                                  Total O  = 5.550622e+001

----------------------------Distribution of species----------------------------

                                               Log       Log       Log    mole V
   Species          Molality    Activity  Molality  Activity     Gamma   cm3/mol

   H+             1.484e+000  1.066e+000     0.171     0.028    -0.144      0.00
   OH-            2.118e-013  1.120e-013   -12.674   -12.951    -0.277     -0.09
   H2O            5.551e+001  9.495e-001     1.744    -0.022     0.000     18.37
Cl           1.484e+000
   Cl-            1.484e+000  8.260e-001     0.171    -0.083    -0.254     19.36
H(0)         3.750e-014
   H2             1.875e-014  2.639e-014   -13.727   -13.579     0.148     28.58
O(0)         0.000e+000
   O2             0.000e+000  0.000e+000   -54.034   -53.886     0.148     32.59

------------------------------Saturation indices-------------------------------

	Phase               SI   log IAP   log K(338 K,   0 atm)

	H2(g)           -10.44    -13.58   -3.14  H2
	H2O(g)           -0.63     -0.02    0.61  H2O
	O2(g)           -50.81    -53.89   -3.08  O2


Reaction step 4.

Using solution 1.	
Using temperature 1.	
Using pressure 1.	
Using reaction 1.	

Reaction 1.	

	 1.618e+000 moles of the following reaction have been added:

	                 Relative
	Reactant            moles

	HCl                  1.00000

	                 Relative
	Element             moles
	Cl                   1.00000
	H                    1.00000

-----------------------------Solution composition------------------------------

	Elements           Molality       Moles

	Cl               1.618e+000  1.618e+000

----------------------------Description of solution----------------------------

                                       pH  =  -0.064      Charge balance
                                       pe  =  15.007      Adjusted to redox equilibrium
       Specific Conductance (uS/cm, 65 oC) = 879644
                          Density (g/cm3)  =   1.00733
                        Activity of water  =   0.945
                           Ionic strength  =  1.618e+000
                       Mass of water (kg)  =  1.000e+000
                 Total alkalinity (eq/kg)  = -1.618e+000
                    Total carbon (mol/kg)  =  0.000e+000
                       Total CO2 (mol/kg)  =  0.000e+000
                      Temperature (deg C)  =  65.00
                           Pressure (atm)  =  0.25
                  Electrical balance (eq)  =  2.292e-014
 Percent error, 100*(Cat-|An|)/(Cat+|An|)  =   0.00
                               Iterations  =  14
                                  Total H  = 1.126308e+002
                                  Total O  = 5.550622e+001

----------------------------Distribution of species----------------------------

                                               Log       Log       Log    mole V
   Species          Molality    Activity  Molality  Activity     Gamma   cm3/mol

   H+             1.618e+000  1.159e+000     0.209     0.064    -0.145      0.00
   OH-            1.960e-013  1.025e-013   -12.708   -12.989    -0.282      0.19
   H2O            5.551e+001  9.450e-001     1.744    -0.025     0.000     18.37
Cl           1.618e+000
   Cl-            1.618e+000  8.949e-001     0.209    -0.048    -0.257     19.42
H(0)         8.936e-034
   H2             4.468e-034  6.486e-034   -33.350   -33.188     0.162     28.58
O(0)         2.938e-015
   O2             1.469e-015  2.132e-015   -14.833   -14.671     0.162     32.59

------------------------------Saturation indices-------------------------------

	Phase               SI   log IAP   log K(338 K,   0 atm)

	H2(g)           -30.05    -33.19   -3.14  H2
	H2O(g)           -0.63     -0.02    0.61  H2O
	O2(g)           -11.59    -14.67   -3.08  O2


Reaction step 5.

Using solution 1.	
Using temperature 1.	
Using pressure 1.	
Using reaction 1.	

Reaction 1.	

	 1.851e+000 moles of the following reaction have been added:

	                 Relative
	Reactant            moles

	HCl                  1.00000

	                 Relative
	Element             moles
	Cl                   1.00000
	H                    1.00000

-----------------------------Solution composition------------------------------

	Elements           Molality       Moles

	Cl               1.851e+000  1.851e+000

----------------------------Description of solution----------------------------

                                       pH  =  -0.120      Charge balance
                                       pe  =   5.765      Adjusted to redox equilibrium
       Specific Conductance (uS/cm, 65 oC) = 967024
                          Density (g/cm3)  =   1.01089
                        Activity of water  =   0.937
                           Ionic strength  =  1.851e+000
                       Mass of water (kg)  =  1.000e+000
                 Total alkalinity (eq/kg)  = -1.851e+000
                    Total carbon (mol/kg)  =  0.000e+000
                       Total CO2 (mol/kg)  =  0.000e+000
                      Temperature (deg C)  =  65.00
                           Pressure (atm)  =  0.25
                  Electrical balance (eq)  = -2.045e-012
 Percent error, 100*(Cat-|An|)/(Cat+|An|)  =  -0.00
                               Iterations  =  12
                                  Total H  = 1.128635e+002
                                  Total O  = 5.550622e+001

----------------------------Distribution of species----------------------------

                                               Log       Log       Log    mole V
   Species          Molality    Activity  Molality  Activity     Gamma   cm3/mol

   H+             1.851e+000  1.319e+000     0.267     0.120    -0.147      0.00
   OH-            1.737e-013  8.926e-014   -12.760   -13.049    -0.289      0.67
   H2O            5.551e+001  9.371e-001     1.744    -0.028     0.000     18.37
Cl           1.851e+000
   Cl-            1.851e+000  1.014e+000     0.267     0.006    -0.261     19.51
H(0)         3.337e-015
   H2             1.668e-015  2.555e-015   -14.778   -14.593     0.185     28.58
O(0)         0.000e+000
   O2             0.000e+000  0.000e+000   -52.054   -51.869     0.185     32.59

------------------------------Saturation indices-------------------------------

	Phase               SI   log IAP   log K(338 K,   0 atm)

	H2(g)           -11.45    -14.59   -3.14  H2
	H2O(g)           -0.64     -0.03    0.61  H2O
	O2(g)           -48.79    -51.87   -3.08  O2


Reaction step 6.

Using solution 1.	
Using temperature 1.	
Using pressure 1.	
Using reaction 1.	

Reaction 1.	

	 2.096e+000 moles of the following reaction have been added:

	                 Relative
	Reactant            moles

	HCl                  1.00000

	                 Relative
	Element             moles
	Cl                   1.00000
	H                    1.00000

-----------------------------Solution composition------------------------------

	Elements           Molality       Moles

	Cl               2.096e+000  2.096e+000

----------------------------Description of solution----------------------------

                                       pH  =  -0.173      Charge balance
                                       pe  =  15.070      Adjusted to redox equilibrium
       Specific Conductance (uS/cm, 65 oC) = 1053008
                          Density (g/cm3)  =   1.01458
                        Activity of water  =   0.929
                           Ionic strength  =  2.096e+000
                       Mass of water (kg)  =  1.000e+000
                 Total alkalinity (eq/kg)  = -2.096e+000
                    Total carbon (mol/kg)  =  0.000e+000
                       Total CO2 (mol/kg)  =  0.000e+000
                      Temperature (deg C)  =  65.00
                           Pressure (atm)  =  0.25
                  Electrical balance (eq)  =  5.130e-009
 Percent error, 100*(Cat-|An|)/(Cat+|An|)  =   0.00
                               Iterations  =  13
                                  Total H  = 1.131082e+002
                                  Total O  = 5.550622e+001

----------------------------Distribution of species----------------------------

                                               Log       Log       Log    mole V
   Species          Molality    Activity  Molality  Activity     Gamma   cm3/mol

   H+             2.096e+000  1.488e+000     0.321     0.173    -0.149      0.00
   OH-            1.551e-013  7.845e-014   -12.809   -13.105    -0.296      1.16
   H2O            5.551e+001  9.287e-001     1.744    -0.032     0.000     18.37
Cl           2.096e+000
   Cl-            2.096e+000  1.140e+000     0.321     0.057    -0.265     19.60
H(0)         9.864e-034
   H2             4.932e-034  7.991e-034   -33.307   -33.097     0.210     28.58
O(0)         1.675e-015
   O2             8.374e-016  1.357e-015   -15.077   -14.867     0.210     32.59

------------------------------Saturation indices-------------------------------

	Phase               SI   log IAP   log K(338 K,   0 atm)

	H2(g)           -29.96    -33.10   -3.14  H2
	H2O(g)           -0.64     -0.03    0.61  H2O
	O2(g)           -11.79    -14.87   -3.08  O2


Reaction step 7.

Using solution 1.	
Using temperature 1.	
Using pressure 1.	
Using reaction 1.	

Reaction 1.	

	 2.115e+000 moles of the following reaction have been added:

	                 Relative
	Reactant            moles

	HCl                  1.00000

	                 Relative
	Element             moles
	Cl                   1.00000
	H                    1.00000

-----------------------------Solution composition------------------------------

	Elements           Molality       Moles

	Cl               2.115e+000  2.115e+000

----------------------------Description of solution----------------------------

                                       pH  =  -0.176      Charge balance
                                       pe  =   5.853      Adjusted to redox equilibrium
       Specific Conductance (uS/cm, 65 oC) = 1059453
                          Density (g/cm3)  =   1.01486
                        Activity of water  =   0.928
                           Ionic strength  =  2.115e+000
                       Mass of water (kg)  =  1.000e+000
                 Total alkalinity (eq/kg)  = -2.115e+000
                    Total carbon (mol/kg)  =  0.000e+000
                       Total CO2 (mol/kg)  =  0.000e+000
                      Temperature (deg C)  =  65.00
                           Pressure (atm)  =  0.25
                  Electrical balance (eq)  =  1.947e-009
 Percent error, 100*(Cat-|An|)/(Cat+|An|)  =   0.00
                               Iterations  =  12
                                  Total H  = 1.131272e+002
                                  Total O  = 5.550622e+001

----------------------------Distribution of species----------------------------

                                               Log       Log       Log    mole V
   Species          Molality    Activity  Molality  Activity     Gamma   cm3/mol

   H+             2.115e+000  1.501e+000     0.325     0.176    -0.149      0.00
   OH-            1.538e-013  7.772e-014   -12.813   -13.109    -0.296      1.20
   H2O            5.551e+001  9.281e-001     1.744    -0.032     0.000     18.37
Cl           2.115e+000
   Cl-            2.115e+000  1.149e+000     0.325     0.060    -0.265     19.60
H(0)         2.715e-015
   H2             1.357e-015  2.209e-015   -14.867   -14.656     0.211     28.58
O(0)         0.000e+000
   O2             0.000e+000  0.000e+000   -51.963   -51.751     0.211     32.59

------------------------------Saturation indices-------------------------------

	Phase               SI   log IAP   log K(338 K,   0 atm)

	H2(g)           -11.52    -14.66   -3.14  H2
	H2O(g)           -0.64     -0.03    0.61  H2O
	O2(g)           -48.67    -51.75   -3.08  O2


Reaction step 8.

Using solution 1.	
Using temperature 1.	
Using pressure 1.	
Using reaction 1.	

Reaction 1.	

	 2.195e+000 moles of the following reaction have been added:

	                 Relative
	Reactant            moles

	HCl                  1.00000

	                 Relative
	Element             moles
	Cl                   1.00000
	H                    1.00000

-----------------------------Solution composition------------------------------

	Elements           Molality       Moles

	Cl               2.195e+000  2.195e+000

----------------------------Description of solution----------------------------

                                       pH  =  -0.192      Charge balance
                                       pe  =  15.163      Adjusted to redox equilibrium
       Specific Conductance (uS/cm, 65 oC) = 1086310
                          Density (g/cm3)  =   1.01606
                        Activity of water  =   0.925
                           Ionic strength  =  2.195e+000
                       Mass of water (kg)  =  1.000e+000
                 Total alkalinity (eq/kg)  = -2.195e+000
                    Total carbon (mol/kg)  =  0.000e+000
                       Total CO2 (mol/kg)  =  0.000e+000
                      Temperature (deg C)  =  65.00
                           Pressure (atm)  =  0.23
                  Electrical balance (eq)  =  1.239e-008
 Percent error, 100*(Cat-|An|)/(Cat+|An|)  =   0.00
                               Iterations  =  14
                                  Total H  = 1.132074e+002
                                  Total O  = 5.550622e+001

----------------------------Distribution of species----------------------------

                                               Log       Log       Log    mole V
   Species          Molality    Activity  Molality  Activity     Gamma   cm3/mol

   H+             2.195e+000  1.556e+000     0.341     0.192    -0.149      0.00
   OH-            1.486e-013  7.475e-014   -12.828   -13.126    -0.299      1.36
   H2O            5.551e+001  9.254e-001     1.744    -0.034     0.000     18.37
Cl           2.195e+000
   Cl-            2.195e+000  1.191e+000     0.341     0.076    -0.266     19.63
H(0)         6.886e-034
   H2             3.443e-034  5.708e-034   -33.463   -33.244     0.219     28.58
O(0)         3.186e-015
   O2             1.593e-015  2.641e-015   -14.798   -14.578     0.219     32.59

------------------------------Saturation indices-------------------------------

	Phase               SI   log IAP   log K(338 K,   0 atm)

	H2(g)           -30.11    -33.24   -3.14  H2
	H2O(g)           -0.64     -0.03    0.61  H2O
	O2(g)           -11.50    -14.58   -3.08  O2


Reaction step 9.

Using solution 1.	
Using temperature 1.	
Using pressure 1.	
Using reaction 1.	

Reaction 1.	

	 2.265e+000 moles of the following reaction have been added:

	                 Relative
	Reactant            moles

	HCl                  1.00000

	                 Relative
	Element             moles
	Cl                   1.00000
	H                    1.00000

-----------------------------Solution composition------------------------------

	Elements           Molality       Moles

	Cl               2.265e+000  2.265e+000

----------------------------Description of solution----------------------------

                                       pH  =  -0.205      Charge balance
                                       pe  =  15.174      Adjusted to redox equilibrium
       Specific Conductance (uS/cm, 65 oC) = 1109242
                          Density (g/cm3)  =   1.01709
                        Activity of water  =   0.923
                           Ionic strength  =  2.265e+000
                       Mass of water (kg)  =  1.000e+000
                 Total alkalinity (eq/kg)  = -2.265e+000
                    Total carbon (mol/kg)  =  0.000e+000
                       Total CO2 (mol/kg)  =  0.000e+000
                      Temperature (deg C)  =  65.00
                           Pressure (atm)  =  0.25
                  Electrical balance (eq)  =  1.534e-010
 Percent error, 100*(Cat-|An|)/(Cat+|An|)  =   0.00
                               Iterations  =  14
                                  Total H  = 1.132772e+002
                                  Total O  = 5.550622e+001

----------------------------Distribution of species----------------------------

                                               Log       Log       Log    mole V
   Species          Molality    Activity  Molality  Activity     Gamma   cm3/mol

   H+             2.265e+000  1.604e+000     0.355     0.205    -0.150      0.00
   OH-            1.444e-013  7.233e-014   -12.840   -13.141    -0.300      1.50
   H2O            5.551e+001  9.230e-001     1.744    -0.035     0.000     18.37
Cl           2.265e+000
   Cl-            2.265e+000  1.227e+000     0.355     0.089    -0.266     19.65
H(0)         6.836e-034
   H2             3.418e-034  5.758e-034   -33.466   -33.240     0.226     28.58
O(0)         3.065e-015
   O2             1.533e-015  2.582e-015   -14.815   -14.588     0.226     32.59

------------------------------Saturation indices-------------------------------

	Phase               SI   log IAP   log K(338 K,   0 atm)

	H2(g)           -30.10    -33.24   -3.14  H2
	H2O(g)           -0.64     -0.03    0.61  H2O
	O2(g)           -11.51    -14.59   -3.08  O2


Reaction step 10.

Using solution 1.	
Using temperature 1.	
Using pressure 1.	
Using reaction 1.	

Reaction 1.	

	 2.396e+000 moles of the following reaction have been added:

	                 Relative
	Reactant            moles

	HCl                  1.00000

	                 Relative
	Element             moles
	Cl                   1.00000
	H                    1.00000

-----------------------------Solution composition------------------------------

	Elements           Molality       Moles

	Cl               2.395e+000  2.396e+000

----------------------------Description of solution----------------------------

                                       pH  =  -0.229      Charge balance
                                       pe  =  15.055      Adjusted to redox equilibrium
       Specific Conductance (uS/cm, 65 oC) = 1151118
                          Density (g/cm3)  =   1.01901
                        Activity of water  =   0.919
                           Ionic strength  =  2.395e+000
                       Mass of water (kg)  =  1.000e+000
                 Total alkalinity (eq/kg)  = -2.395e+000
                    Total carbon (mol/kg)  =  0.000e+000
                       Total CO2 (mol/kg)  =  0.000e+000
                      Temperature (deg C)  =  65.00
                           Pressure (atm)  =  0.25
                  Electrical balance (eq)  =  3.722e-011
 Percent error, 100*(Cat-|An|)/(Cat+|An|)  =   0.00
                               Iterations  =  13
                                  Total H  = 1.134079e+002
                                  Total O  = 5.550622e+001

----------------------------Distribution of species----------------------------

                                               Log       Log       Log    mole V
   Species          Molality    Activity  Molality  Activity     Gamma   cm3/mol

   H+             2.395e+000  1.693e+000     0.379     0.229    -0.151      0.00
   OH-            1.370e-013  6.817e-014   -12.863   -13.166    -0.303      1.76
   H2O            5.551e+001  9.186e-001     1.744    -0.037     0.000     18.37
Cl           2.395e+000
   Cl-            2.395e+000  1.294e+000     0.379     0.112    -0.267     19.69
H(0)         1.277e-033
   H2             6.384e-034  1.108e-033   -33.195   -32.955     0.240     28.58
O(0)         7.949e-016
   O2             3.975e-016  6.900e-016   -15.401   -15.161     0.240     32.59

------------------------------Saturation indices-------------------------------

	Phase               SI   log IAP   log K(338 K,   0 atm)

	H2(g)           -29.82    -32.96   -3.14  H2
	H2O(g)           -0.65     -0.04    0.61  H2O
	O2(g)           -12.08    -15.16   -3.08  O2


Reaction step 11.

Using solution 1.	
Using temperature 1.	
Using pressure 1.	
Using reaction 1.	

Reaction 1.	

	 2.458e+000 moles of the following reaction have been added:

	                 Relative
	Reactant            moles

	HCl                  1.00000

	                 Relative
	Element             moles
	Cl                   1.00000
	H                    1.00000

-----------------------------Solution composition------------------------------

	Elements           Molality       Moles

	Cl               2.458e+000  2.458e+000

----------------------------Description of solution----------------------------

                                       pH  =  -0.240      Charge balance
                                       pe  =  15.195      Adjusted to redox equilibrium
       Specific Conductance (uS/cm, 65 oC) = 1170643
                          Density (g/cm3)  =   1.01993
                        Activity of water  =   0.916
                           Ionic strength  =  2.458e+000
                       Mass of water (kg)  =  1.000e+000
                 Total alkalinity (eq/kg)  = -2.458e+000
                    Total carbon (mol/kg)  =  0.000e+000
                       Total CO2 (mol/kg)  =  0.000e+000
                      Temperature (deg C)  =  65.00
                           Pressure (atm)  =  0.25
                  Electrical balance (eq)  =  8.800e-010
 Percent error, 100*(Cat-|An|)/(Cat+|An|)  =   0.00
                               Iterations  =  14
                                  Total H  = 1.134703e+002
                                  Total O  = 5.550622e+001

----------------------------Distribution of species----------------------------

                                               Log       Log       Log    mole V
   Species          Molality    Activity  Molality  Activity     Gamma   cm3/mol

   H+             2.458e+000  1.736e+000     0.391     0.240    -0.151      0.00
   OH-            1.338e-013  6.634e-014   -12.874   -13.178    -0.305      1.89
   H2O            5.551e+001  9.164e-001     1.744    -0.038     0.000     18.37
Cl           2.458e+000
   Cl-            2.458e+000  1.327e+000     0.391     0.123    -0.268     19.71
H(0)         6.948e-034
   H2             3.474e-034  6.118e-034   -33.459   -33.213     0.246     28.58
O(0)         2.559e-015
   O2             1.280e-015  2.254e-015   -14.893   -14.647     0.246     32.59

------------------------------Saturation indices-------------------------------

	Phase               SI   log IAP   log K(338 K,   0 atm)

	H2(g)           -30.08    -33.21   -3.14  H2
	H2O(g)           -0.65     -0.04    0.61  H2O
	O2(g)           -11.57    -14.65   -3.08  O2


Reaction step 12.

Using solution 1.	
Using temperature 1.	
Using pressure 1.	
Using reaction 1.	

Reaction 1.	

	 2.764e+000 moles of the following reaction have been added:

	                 Relative
	Reactant            moles

	HCl                  1.00000

	                 Relative
	Element             moles
	Cl                   1.00000
	H                    1.00000

-----------------------------Solution composition------------------------------

	Elements           Molality       Moles

	Cl               2.764e+000  2.764e+000

----------------------------Description of solution----------------------------

                                       pH  =  -0.289      Charge balance
                                       pe  =  15.040      Adjusted to redox equilibrium
       Specific Conductance (uS/cm, 65 oC) = 1262371
                          Density (g/cm3)  =   1.02435
                        Activity of water  =   0.906
                           Ionic strength  =  2.764e+000
                       Mass of water (kg)  =  1.000e+000
                 Total alkalinity (eq/kg)  = -2.764e+000
                    Total carbon (mol/kg)  =  0.000e+000
                       Total CO2 (mol/kg)  =  0.000e+000
                      Temperature (deg C)  =  65.00
                           Pressure (atm)  =  0.25
                  Electrical balance (eq)  =  4.050e-010
 Percent error, 100*(Cat-|An|)/(Cat+|An|)  =   0.00
                               Iterations  =  13
                                  Total H  = 1.137765e+002
                                  Total O  = 5.550622e+001

----------------------------Distribution of species----------------------------

                                               Log       Log       Log    mole V
   Species          Molality    Activity  Molality  Activity     Gamma   cm3/mol

   H+             2.764e+000  1.946e+000     0.442     0.289    -0.152      0.00
   OH-            1.197e-013  5.852e-014   -12.922   -13.233    -0.311      2.49
   H2O            5.551e+001  9.060e-001     1.744    -0.043     0.000     18.37
Cl           2.764e+000
   Cl-            2.764e+000  1.486e+000     0.442     0.172    -0.269     19.80
H(0)         1.662e-033
   H2             8.308e-034  1.570e-033   -33.081   -32.804     0.276     28.58
O(0)         3.541e-016
   O2             1.770e-016  3.346e-016   -15.752   -15.476     0.276     32.59

------------------------------Saturation indices-------------------------------

	Phase               SI   log IAP   log K(338 K,   0 atm)

	H2(g)           -29.67    -32.80   -3.14  H2
	H2O(g)           -0.65     -0.04    0.61  H2O
	O2(g)           -12.40    -15.48   -3.08  O2


Reaction step 13.

Using solution 1.	
Using temperature 1.	
Using pressure 1.	
Using reaction 1.	

Reaction 1.	

	 2.957e+000 moles of the following reaction have been added:

	                 Relative
	Reactant            moles

	HCl                  1.00000

	                 Relative
	Element             moles
	Cl                   1.00000
	H                    1.00000

-----------------------------Solution composition------------------------------

	Elements           Molality       Moles

	Cl               2.957e+000  2.957e+000

----------------------------Description of solution----------------------------

                                       pH  =  -0.318      Charge balance
                                       pe  =   5.737      Adjusted to redox equilibrium
       Specific Conductance (uS/cm, 65 oC) = 1317057
                          Density (g/cm3)  =   1.02710
                        Activity of water  =   0.899
                           Ionic strength  =  2.957e+000
                       Mass of water (kg)  =  1.000e+000
                 Total alkalinity (eq/kg)  = -2.957e+000
                    Total carbon (mol/kg)  =  0.000e+000
                       Total CO2 (mol/kg)  =  0.000e+000
                      Temperature (deg C)  =  65.00
                           Pressure (atm)  =  0.25
                  Electrical balance (eq)  =  1.721e-011
 Percent error, 100*(Cat-|An|)/(Cat+|An|)  =   0.00
                               Iterations  =  13
                                  Total H  = 1.139698e+002
                                  Total O  = 5.550622e+001

----------------------------Distribution of species----------------------------

                                               Log       Log       Log    mole V
   Species          Molality    Activity  Molality  Activity     Gamma   cm3/mol

   H+             2.957e+000  2.078e+000     0.471     0.318    -0.153      0.00
   OH-            1.122e-013  5.441e-014   -12.950   -13.264    -0.314      2.86
   H2O            5.551e+001  8.994e-001     1.744    -0.046     0.000     18.37
Cl           2.957e+000
   Cl-            2.957e+000  1.588e+000     0.471     0.201    -0.270     19.86
H(0)         7.301e-015
   H2             3.650e-015  7.212e-015   -14.438   -14.142     0.296     28.58
O(0)         0.000e+000
   O2             0.000e+000  0.000e+000   -53.102   -52.806     0.296     32.59

------------------------------Saturation indices-------------------------------

	Phase               SI   log IAP   log K(338 K,   0 atm)

	H2(g)           -11.00    -14.14   -3.14  H2
	H2O(g)           -0.66     -0.05    0.61  H2O
	O2(g)           -49.73    -52.81   -3.08  O2


------------------
End of simulation.
------------------

------------------------------------
Reading input data for simulation 3.
------------------------------------

	USE solution 1
	REACTION_TEMPERATURE
	 65.000000
	REACTION_PRESSURE
	 0.000000
	REACTION
	 NaCl 1
	0 0.100000 0.216680 0.256170 0.349370 0.518980 0.527510 0.625830 0.779010 0.875250 1.000000 1.103670 1.225410 1.556330 1.609170 2.000000 2.232540 2.500000 2.547010 3.035630 3.989210 4.266790 4.565810 5.557430 5.715770 5.913880
	USER_GRAPH
	-headings NaCl
	10 data 0, 18.495315, 18.721759, 19.165135, 19.108003, 19.224043, 19.387386, 19.353910, 19.604876, 19.665787, 20.101217, 19.918429, 20.026973, 20.211263, 20.253637, 20.621179, 20.668477, 20.839475, 20.873152, 21.102330, 21.500523, 21.609698, 21.734248, 22.074488, 22.120537, 22.205722,
	20 dim d(26)
	30 read d(1), d(2), d(3), d(4), d(5), d(6), d(7), d(8), d(9), d(10), d(11), d(12), d(13), d(14), d(15), d(16), d(17), d(18), d(19), d(20), d(21), d(22), d(23), d(24), d(25), d(26),
	40 if step_no = 1 then put(rho, 10)
	50 if step_no > 1 then Vmol = (1e3 + tot("Cl") * 58.4428) / (tot("Cl") * rho) - 1e3 / (tot("Cl") * get(10))
	60 if step_no = 1 then dif = 0 else dif = Vmol - d(step_no)
	62 if step_no = 1 then goto 150
	70 plot_xy mu^0.5, d(step_no), line_w = 0, color = Red 
	80 plot_xy mu^0.5, Vmol, symbol = None, color = Red, line_width = 2 
	122 if step_no > 3 then goto 150
	130 Van = 18.02
	 131 Vcat = 16.7 - 18.02
	134 if step_no = 2 then plot_xy 0, Van + Vcat, symbol = None, color = Red, line_width = 1 else                        plot_xy 4, Van + Vcat + DH_Av * 4, symbol = None, color = Red, line_width = 1
	150 end
	END
-----------------------------------------
Beginning of batch-reaction calculations.
-----------------------------------------

Reaction step 1.

Using solution 1.	
Using temperature 1.	
Using pressure 1.	
Using reaction 1.	

Reaction 1.	

	 0.000e+000 moles of the following reaction have been added:

	                 Relative
	Reactant            moles

	NaCl                 1.00000

	                 Relative
	Element             moles
	Cl                   1.00000
	Na                   1.00000

-----------------------------Solution composition------------------------------

	Elements           Molality       Moles

	Pure water     

----------------------------Description of solution----------------------------

                                       pH  =   6.450      Charge balance
                                       pe  =   0.649      Adjusted to redox equilibrium
       Specific Conductance (uS/cm, 65 oC) = 0
                          Density (g/cm3)  =   0.98051
                        Activity of water  =   1.000
                           Ionic strength  =  3.548e-007
                       Mass of water (kg)  =  1.000e+000
                 Total alkalinity (eq/kg)  = -9.733e-018
                    Total carbon (mol/kg)  =  0.000e+000
                       Total CO2 (mol/kg)  =  0.000e+000
                      Temperature (deg C)  =  65.00
                           Pressure (atm)  =  0.25
                  Electrical balance (eq)  =  9.733e-018
 Percent error, 100*(Cat-|An|)/(Cat+|An|)  =   0.00
                               Iterations  =   9
                                  Total H  = 1.110124e+002
                                  Total O  = 5.550622e+001

----------------------------Distribution of species----------------------------

                                               Log       Log       Log    mole V
   Species          Molality    Activity  Molality  Activity     Gamma   cm3/mol

   H+             3.548e-007  3.545e-007    -6.450    -6.450    -0.000      0.00
   OH-            3.548e-007  3.545e-007    -6.450    -6.450    -0.000     -4.06
   H2O            5.551e+001  1.000e+000     1.744    -0.000     0.000     18.37
H(0)         6.310e-018
   H2             3.155e-018  3.155e-018   -17.501   -17.501     0.000     28.58
O(0)         0.000e+000
   O2             0.000e+000  0.000e+000   -45.996   -45.996     0.000     32.59

------------------------------Saturation indices-------------------------------

	Phase               SI   log IAP   log K(338 K,   0 atm)

	H2(g)           -14.36    -17.50   -3.14  H2
	H2O(g)           -0.61     -0.00    0.61  H2O
	O2(g)           -42.92    -46.00   -3.08  O2


Reaction step 2.

Using solution 1.	
Using temperature 1.	
Using pressure 1.	
Using reaction 1.	

Reaction 1.	

	 1.000e-001 moles of the following reaction have been added:

	                 Relative
	Reactant            moles

	NaCl                 1.00000

	                 Relative
	Element             moles
	Cl                   1.00000
	Na                   1.00000

-----------------------------Solution composition------------------------------

	Elements           Molality       Moles

	Cl               1.000e-001  1.000e-001
	Na               1.000e-001  1.000e-001

----------------------------Description of solution----------------------------

                                       pH  =   6.432      Charge balance
                                       pe  =   0.287      Adjusted to redox equilibrium
       Specific Conductance (uS/cm, 65 oC) = 21925
                          Density (g/cm3)  =   0.98445
                        Activity of water  =   0.997
                           Ionic strength  =  1.000e-001
                       Mass of water (kg)  =  1.000e+000
                 Total alkalinity (eq/kg)  =  7.021e-013
                    Total carbon (mol/kg)  =  0.000e+000
                       Total CO2 (mol/kg)  =  0.000e+000
                      Temperature (deg C)  =  65.00
                           Pressure (atm)  =  0.25
                  Electrical balance (eq)  = -2.339e-013
 Percent error, 100*(Cat-|An|)/(Cat+|An|)  =  -0.00
                               Iterations  =   8
                                  Total H  = 1.110124e+002
                                  Total O  = 5.550622e+001

----------------------------Distribution of species----------------------------

                                               Log       Log       Log    mole V
   Species          Molality    Activity  Molality  Activity     Gamma   cm3/mol

   OH-            4.541e-007  3.388e-007    -6.343    -6.470    -0.127     -3.47
   H+             4.541e-007  3.697e-007    -6.343    -6.432    -0.089      0.00
   H2O            5.551e+001  9.966e-001     1.744    -0.001     0.000     18.37
Cl           1.000e-001
   Cl-            1.000e-001  7.485e-002    -1.000    -1.126    -0.126     18.30
H(0)         3.546e-017
   H2             1.773e-017  1.814e-017   -16.751   -16.741     0.010     28.58
Na           1.000e-001
   Na+            1.000e-001  7.673e-002    -1.000    -1.115    -0.115      0.23
   NaOH           2.540e-018  2.599e-018   -17.595   -17.585     0.010     (0)  
O(0)         0.000e+000
   O2             0.000e+000  0.000e+000   -47.528   -47.518     0.010     32.59

------------------------------Saturation indices-------------------------------

	Phase               SI   log IAP   log K(338 K,   0 atm)

	H2(g)           -13.60    -16.74   -3.14  H2
	H2O(g)           -0.61     -0.00    0.61  H2O
	Halite           -3.90     -2.24    1.66  NaCl
	O2(g)           -44.44    -47.52   -3.08  O2


Reaction step 3.

Using solution 1.	
Using temperature 1.	
Using pressure 1.	
Using reaction 1.	

Reaction 1.	

	 2.167e-001 moles of the following reaction have been added:

	                 Relative
	Reactant            moles

	NaCl                 1.00000

	                 Relative
	Element             moles
	Cl                   1.00000
	Na                   1.00000

-----------------------------Solution composition------------------------------

	Elements           Molality       Moles

	Cl               2.167e-001  2.167e-001
	Na               2.167e-001  2.167e-001

----------------------------Description of solution----------------------------

                                       pH  =   6.422      Charge balance
                                       pe  =   0.374      Adjusted to redox equilibrium
       Specific Conductance (uS/cm, 65 oC) = 45391
                          Density (g/cm3)  =   0.98897
                        Activity of water  =   0.993
                           Ionic strength  =  2.167e-001
                       Mass of water (kg)  =  1.000e+000
                 Total alkalinity (eq/kg)  =  1.361e-017
                    Total carbon (mol/kg)  =  0.000e+000
                       Total CO2 (mol/kg)  =  0.000e+000
                      Temperature (deg C)  =  65.00
                           Pressure (atm)  =  0.25
                  Electrical balance (eq)  =  2.897e-018
 Percent error, 100*(Cat-|An|)/(Cat+|An|)  =   0.00
                               Iterations  =  17
                                  Total H  = 1.110124e+002
                                  Total O  = 5.550622e+001

----------------------------Distribution of species----------------------------

                                               Log       Log       Log    mole V
   Species          Molality    Activity  Molality  Activity     Gamma   cm3/mol

   OH-            4.836e-007  3.299e-007    -6.315    -6.482    -0.166     -3.08
   H+             4.836e-007  3.782e-007    -6.315    -6.422    -0.107      0.00
   H2O            5.551e+001  9.926e-001     1.744    -0.003     0.000     18.37
Cl           2.167e-001
   Cl-            2.167e-001  1.489e-001    -0.664    -0.827    -0.163     18.49
H(0)         2.427e-017
   H2             1.213e-017  1.275e-017   -16.916   -16.894     0.022     28.58
Na           2.167e-001
   Na+            2.167e-001  1.563e-001    -0.664    -0.806    -0.142      0.35
   NaOH           4.905e-018  5.156e-018   -17.309   -17.288     0.022     (0)  
O(0)         0.000e+000
   O2             0.000e+000  0.000e+000   -47.237   -47.216     0.022     32.59

------------------------------Saturation indices-------------------------------

	Phase               SI   log IAP   log K(338 K,   0 atm)

	H2(g)           -13.76    -16.89   -3.14  H2
	H2O(g)           -0.61     -0.00    0.61  H2O
	Halite           -3.29     -1.63    1.66  NaCl
	O2(g)           -44.14    -47.22   -3.08  O2


Reaction step 4.

Using solution 1.	
Using temperature 1.	
Using pressure 1.	
Using reaction 1.	

Reaction 1.	

	 2.562e-001 moles of the following reaction have been added:

	                 Relative
	Reactant            moles

	NaCl                 1.00000

	                 Relative
	Element             moles
	Cl                   1.00000
	Na                   1.00000

-----------------------------Solution composition------------------------------

	Elements           Molality       Moles

	Cl               2.562e-001  2.562e-001
	Na               2.562e-001  2.562e-001

----------------------------Description of solution----------------------------

                                       pH  =   6.420      Charge balance
                                       pe  =   0.044      Adjusted to redox equilibrium
       Specific Conductance (uS/cm, 65 oC) = 53132
                          Density (g/cm3)  =   0.99048
                        Activity of water  =   0.991
                           Ionic strength  =  2.562e-001
                       Mass of water (kg)  =  1.000e+000
                 Total alkalinity (eq/kg)  =  6.873e-013
                    Total carbon (mol/kg)  =  0.000e+000
                       Total CO2 (mol/kg)  =  0.000e+000
                      Temperature (deg C)  =  65.00
                           Pressure (atm)  =  0.25
                  Electrical balance (eq)  =  1.502e-012
 Percent error, 100*(Cat-|An|)/(Cat+|An|)  =   0.00
                               Iterations  =   9
                                  Total H  = 1.110124e+002
                                  Total O  = 5.550622e+001

----------------------------Distribution of species----------------------------

                                               Log       Log       Log    mole V
   Species          Molality    Activity  Molality  Activity     Gamma   cm3/mol

   OH-            4.905e-007  3.276e-007    -6.309    -6.485    -0.175     -2.97
   H+             4.905e-007  3.803e-007    -6.309    -6.420    -0.111      0.00
   H2O            5.551e+001  9.913e-001     1.744    -0.004     0.000     18.37
Cl           2.562e-001
   Cl-            2.562e-001  1.726e-001    -0.591    -0.763    -0.171     18.54
H(0)         1.110e-016
   H2             5.549e-017  5.886e-017   -16.256   -16.230     0.026     28.58
Na           2.562e-001
   Na+            2.562e-001  1.825e-001    -0.591    -0.739    -0.147      0.37
   NaOH           5.638e-018  5.981e-018   -17.249   -17.223     0.026     (0)  
O(0)         0.000e+000
   O2             0.000e+000  0.000e+000   -48.571   -48.545     0.026     32.59

------------------------------Saturation indices-------------------------------

	Phase               SI   log IAP   log K(338 K,   0 atm)

	H2(g)           -13.09    -16.23   -3.14  H2
	H2O(g)           -0.61     -0.00    0.61  H2O
	Halite           -3.16     -1.50    1.66  NaCl
	O2(g)           -45.47    -48.55   -3.08  O2


Reaction step 5.

Using solution 1.	
Using temperature 1.	
Using pressure 1.	
Using reaction 1.	

Reaction 1.	

	 3.494e-001 moles of the following reaction have been added:

	                 Relative
	Reactant            moles

	NaCl                 1.00000

	                 Relative
	Element             moles
	Cl                   1.00000
	Na                   1.00000

-----------------------------Solution composition------------------------------

	Elements           Molality       Moles

	Cl               3.494e-001  3.494e-001
	Na               3.494e-001  3.494e-001

----------------------------Description of solution----------------------------

                                       pH  =   6.415      Charge balance
                                       pe  =   0.423      Adjusted to redox equilibrium
       Specific Conductance (uS/cm, 65 oC) = 71176
                          Density (g/cm3)  =   0.99403
                        Activity of water  =   0.988
                           Ionic strength  =  3.494e-001
                       Mass of water (kg)  =  1.000e+000
                 Total alkalinity (eq/kg)  =  8.131e-013
                    Total carbon (mol/kg)  =  0.000e+000
                       Total CO2 (mol/kg)  =  0.000e+000
                      Temperature (deg C)  =  65.00
                           Pressure (atm)  =  0.25
                  Electrical balance (eq)  =  1.637e-012
 Percent error, 100*(Cat-|An|)/(Cat+|An|)  =   0.00
                               Iterations  =  13
                                  Total H  = 1.110124e+002
                                  Total O  = 5.550622e+001

----------------------------Distribution of species----------------------------

                                               Log       Log       Log    mole V
   Species          Molality    Activity  Molality  Activity     Gamma   cm3/mol

   OH-            5.034e-007  3.231e-007    -6.298    -6.491    -0.193     -2.71
   H+             5.034e-007  3.844e-007    -6.298    -6.415    -0.117      0.00
   H2O            5.551e+001  9.881e-001     1.744    -0.005     0.000     18.37
Cl           3.494e-001
   Cl-            3.494e-001  2.269e-001    -0.457    -0.644    -0.187     18.65
H(0)         1.933e-017
   H2             9.666e-018  1.048e-017   -17.015   -16.980     0.035     28.58
Na           3.494e-001
   Na+            3.494e-001  2.441e-001    -0.457    -0.612    -0.156      0.43
   NaOH           7.277e-018  7.886e-018   -17.138   -17.103     0.035     (0)  
O(0)         0.000e+000
   O2             0.000e+000  0.000e+000   -47.084   -47.049     0.035     32.59

------------------------------Saturation indices-------------------------------

	Phase               SI   log IAP   log K(338 K,   0 atm)

	H2(g)           -13.84    -16.98   -3.14  H2
	H2O(g)           -0.62     -0.01    0.61  H2O
	Halite           -2.92     -1.26    1.66  NaCl
	O2(g)           -43.97    -47.05   -3.08  O2


Reaction step 6.

Using solution 1.	
Using temperature 1.	
Using pressure 1.	
Using reaction 1.	

Reaction 1.	

	 5.190e-001 moles of the following reaction have been added:

	                 Relative
	Reactant            moles

	NaCl                 1.00000

	                 Relative
	Element             moles
	Cl                   1.00000
	Na                   1.00000

-----------------------------Solution composition------------------------------

	Elements           Molality       Moles

	Cl               5.190e-001  5.190e-001
	Na               5.190e-001  5.190e-001

----------------------------Description of solution----------------------------

                                       pH  =   6.409      Charge balance
                                       pe  =   7.898      Adjusted to redox equilibrium
       Specific Conductance (uS/cm, 65 oC) = 98255
                          Density (g/cm3)  =   1.00041
                        Activity of water  =   0.982
                           Ionic strength  =  5.190e-001
                       Mass of water (kg)  =  1.000e+000
                 Total alkalinity (eq/kg)  = -1.877e-017
                    Total carbon (mol/kg)  =  0.000e+000
                       Total CO2 (mol/kg)  =  0.000e+000
                      Temperature (deg C)  =  65.00
                           Pressure (atm)  =  0.25
                  Electrical balance (eq)  =  1.566e-016
 Percent error, 100*(Cat-|An|)/(Cat+|An|)  =   0.00
                               Iterations  =  13
                                  Total H  = 1.110124e+002
                                  Total O  = 5.550622e+001

----------------------------Distribution of species----------------------------

                                               Log       Log       Log    mole V
   Species          Molality    Activity  Molality  Activity     Gamma   cm3/mol

   H+             5.201e-007  3.898e-007    -6.284    -6.409    -0.125      0.00
   OH-            5.201e-007  3.167e-007    -6.284    -6.499    -0.215     -2.27
   H2O            5.551e+001  9.824e-001     1.744    -0.008     0.000     18.37
Cl           5.190e-001
   Cl-            5.190e-001  3.217e-001    -0.285    -0.492    -0.208     18.81
H(0)         2.152e-032
   H2             1.076e-032  1.213e-032   -31.968   -31.916     0.052     28.58
Na           5.190e-001
   Na+            5.190e-001  3.564e-001    -0.285    -0.448    -0.163      0.52
   NaOH           1.002e-017  1.129e-017   -16.999   -16.947     0.052     (0)  
O(0)         1.170e-017
   O2             5.850e-018  6.592e-018   -17.233   -17.181     0.052     32.59

------------------------------Saturation indices-------------------------------

	Phase               SI   log IAP   log K(338 K,   0 atm)

	H2(g)           -28.78    -31.92   -3.14  H2
	H2O(g)           -0.62     -0.01    0.61  H2O
	Halite           -2.60     -0.94    1.66  NaCl
	O2(g)           -14.10    -17.18   -3.08  O2


Reaction step 7.

Using solution 1.	
Using temperature 1.	
Using pressure 1.	
Using reaction 1.	

Reaction 1.	

	 5.275e-001 moles of the following reaction have been added:

	                 Relative
	Reactant            moles

	NaCl                 1.00000

	                 Relative
	Element             moles
	Cl                   1.00000
	Na                   1.00000

-----------------------------Solution composition------------------------------

	Elements           Molality       Moles

	Cl               5.275e-001  5.275e-001
	Na               5.275e-001  5.275e-001

----------------------------Description of solution----------------------------

                                       pH  =   6.409      Charge balance
                                       pe  =   0.378      Adjusted to redox equilibrium
       Specific Conductance (uS/cm, 65 oC) = 99519
                          Density (g/cm3)  =   1.00073
                        Activity of water  =   0.982
                           Ionic strength  =  5.275e-001
                       Mass of water (kg)  =  1.000e+000
                 Total alkalinity (eq/kg)  =  3.434e-015
                    Total carbon (mol/kg)  =  0.000e+000
                       Total CO2 (mol/kg)  =  0.000e+000
                      Temperature (deg C)  =  65.00
                           Pressure (atm)  =  0.25
                  Electrical balance (eq)  =  2.427e-013
 Percent error, 100*(Cat-|An|)/(Cat+|An|)  =   0.00
                               Iterations  =  11
                                  Total H  = 1.110124e+002
                                  Total O  = 5.550622e+001

----------------------------Distribution of species----------------------------

                                               Log       Log       Log    mole V
   Species          Molality    Activity  Molality  Activity     Gamma   cm3/mol

   OH-            5.208e-007  3.164e-007    -6.283    -6.500    -0.216     -2.24
   H+             5.208e-007  3.900e-007    -6.283    -6.409    -0.126      0.00
   H2O            5.551e+001  9.821e-001     1.744    -0.008     0.000     18.37
Cl           5.275e-001
   Cl-            5.275e-001  3.264e-001    -0.278    -0.486    -0.208     18.81
H(0)         2.359e-017
   H2             1.179e-017  1.332e-017   -16.928   -16.876     0.053     28.58
Na           5.275e-001
   Na+            5.275e-001  3.620e-001    -0.278    -0.441    -0.163      0.52
   NaOH           1.015e-017  1.146e-017   -16.994   -16.941     0.053     (0)  
O(0)         0.000e+000
   O2             0.000e+000  0.000e+000   -47.315   -47.263     0.053     32.59

------------------------------Saturation indices-------------------------------

	Phase               SI   log IAP   log K(338 K,   0 atm)

	H2(g)           -13.74    -16.88   -3.14  H2
	H2O(g)           -0.62     -0.01    0.61  H2O
	Halite           -2.59     -0.93    1.66  NaCl
	O2(g)           -44.18    -47.26   -3.08  O2


Reaction step 8.

Using solution 1.	
Using temperature 1.	
Using pressure 1.	
Using reaction 1.	

Reaction 1.	

	 6.258e-001 moles of the following reaction have been added:

	                 Relative
	Reactant            moles

	NaCl                 1.00000

	                 Relative
	Element             moles
	Cl                   1.00000
	Na                   1.00000

-----------------------------Solution composition------------------------------

	Elements           Molality       Moles

	Cl               6.258e-001  6.258e-001
	Na               6.258e-001  6.258e-001

----------------------------Description of solution----------------------------

                                       pH  =   6.406      Charge balance
                                       pe  =   6.798      Adjusted to redox equilibrium
       Specific Conductance (uS/cm, 65 oC) = 113614
                          Density (g/cm3)  =   1.00438
                        Activity of water  =   0.979
                           Ionic strength  =  6.258e-001
                       Mass of water (kg)  =  1.000e+000
                 Total alkalinity (eq/kg)  =  3.466e-017
                    Total carbon (mol/kg)  =  0.000e+000
                       Total CO2 (mol/kg)  =  0.000e+000
                      Temperature (deg C)  =  65.00
                           Pressure (atm)  =  0.25
                  Electrical balance (eq)  =  2.021e-016
 Percent error, 100*(Cat-|An|)/(Cat+|An|)  =   0.00
                               Iterations  =  13
                                  Total H  = 1.110124e+002
                                  Total O  = 5.550622e+001

----------------------------Distribution of species----------------------------

                                               Log       Log       Log    mole V
   Species          Molality    Activity  Molality  Activity     Gamma   cm3/mol

   OH-            5.280e-007  3.135e-007    -6.277    -6.504    -0.226     -2.00
   H+             5.280e-007  3.924e-007    -6.277    -6.406    -0.129      0.00
   H2O            5.551e+001  9.787e-001     1.744    -0.009     0.000     18.37
Cl           6.258e-001
   Cl-            6.258e-001  3.797e-001    -0.204    -0.421    -0.217     18.89
H(0)         3.361e-030
   H2             1.681e-030  1.941e-030   -29.775   -29.712     0.063     28.58
Na           6.258e-001
   Na+            6.258e-001  4.281e-001    -0.204    -0.368    -0.165      0.57
   NaOH           1.162e-017  1.342e-017   -16.935   -16.872     0.063     (0)  
O(0)         4.423e-022
   O2             2.211e-022  2.554e-022   -21.655   -21.593     0.063     32.59

------------------------------Saturation indices-------------------------------

	Phase               SI   log IAP   log K(338 K,   0 atm)

	H2(g)           -26.57    -29.71   -3.14  H2
	H2O(g)           -0.62     -0.01    0.61  H2O
	Halite           -2.45     -0.79    1.66  NaCl
	O2(g)           -18.51    -21.59   -3.08  O2


Reaction step 9.

Using solution 1.	
Using temperature 1.	
Using pressure 1.	
Using reaction 1.	

Reaction 1.	

	 7.790e-001 moles of the following reaction have been added:

	                 Relative
	Reactant            moles

	NaCl                 1.00000

	                 Relative
	Element             moles
	Cl                   1.00000
	Na                   1.00000

-----------------------------Solution composition------------------------------

	Elements           Molality       Moles

	Cl               7.790e-001  7.790e-001
	Na               7.790e-001  7.790e-001

----------------------------Description of solution----------------------------

                                       pH  =   6.403      Charge balance
                                       pe  =   8.086      Adjusted to redox equilibrium
       Specific Conductance (uS/cm, 65 oC) = 134089
                          Density (g/cm3)  =   1.01002
                        Activity of water  =   0.974
                           Ionic strength  =  7.790e-001
                       Mass of water (kg)  =  1.000e+000
                 Total alkalinity (eq/kg)  =  5.464e-017
                    Total carbon (mol/kg)  =  0.000e+000
                       Total CO2 (mol/kg)  =  0.000e+000
                      Temperature (deg C)  =  65.00
                           Pressure (atm)  =  0.25
                  Electrical balance (eq)  =  1.030e-015
 Percent error, 100*(Cat-|An|)/(Cat+|An|)  =   0.00
                               Iterations  =   8
                                  Total H  = 1.110124e+002
                                  Total O  = 5.550622e+001

----------------------------Distribution of species----------------------------

                                               Log       Log       Log    mole V
   Species          Molality    Activity  Molality  Activity     Gamma   cm3/mol

   OH-            5.369e-007  3.095e-007    -6.270    -6.509    -0.239     -1.64
   H+             5.369e-007  3.953e-007    -6.270    -6.403    -0.133      0.00
   H2O            5.551e+001  9.735e-001     1.744    -0.012     0.000     18.37
Cl           7.790e-001
   Cl-            7.790e-001  4.613e-001    -0.108    -0.336    -0.228     18.99
H(0)         8.781e-033
   H2             4.390e-033  5.253e-033   -32.357   -32.280     0.078     28.58
Na           7.790e-001
   Na+            7.790e-001  5.332e-001    -0.108    -0.273    -0.165      0.63
   NaOH           1.379e-017  1.650e-017   -16.860   -16.782     0.078     (0)  
O(0)         5.767e-017
   O2             2.884e-017  3.450e-017   -16.540   -16.462     0.078     32.59

------------------------------Saturation indices-------------------------------

	Phase               SI   log IAP   log K(338 K,   0 atm)

	H2(g)           -29.14    -32.28   -3.14  H2
	H2O(g)           -0.62     -0.01    0.61  H2O
	Halite           -2.27     -0.61    1.66  NaCl
	O2(g)           -13.38    -16.46   -3.08  O2


Reaction step 10.

Using solution 1.	
Using temperature 1.	
Using pressure 1.	
Using reaction 1.	

Reaction 1.	

	 8.752e-001 moles of the following reaction have been added:

	                 Relative
	Reactant            moles

	NaCl                 1.00000

	                 Relative
	Element             moles
	Cl                   1.00000
	Na                   1.00000

-----------------------------Solution composition------------------------------

	Elements           Molality       Moles

	Cl               8.753e-001  8.753e-001
	Na               8.753e-001  8.753e-001

----------------------------Description of solution----------------------------

                                       pH  =   6.401      Charge balance
                                       pe  =   0.180      Adjusted to redox equilibrium
       Specific Conductance (uS/cm, 65 oC) = 146219
                          Density (g/cm3)  =   1.01352
                        Activity of water  =   0.970
                           Ionic strength  =  8.753e-001
                       Mass of water (kg)  =  1.000e+000
                 Total alkalinity (eq/kg)  =  2.096e-013
                    Total carbon (mol/kg)  =  0.000e+000
                       Total CO2 (mol/kg)  =  0.000e+000
                      Temperature (deg C)  =  65.00
                           Pressure (atm)  =  0.25
                  Electrical balance (eq)  = -6.545e-010
 Percent error, 100*(Cat-|An|)/(Cat+|An|)  =  -0.00
                               Iterations  =   9
                                  Total H  = 1.110124e+002
                                  Total O  = 5.550622e+001

----------------------------Distribution of species----------------------------

                                               Log       Log       Log    mole V
   Species          Molality    Activity  Molality  Activity     Gamma   cm3/mol

   OH-            5.416e-007  3.073e-007    -6.266    -6.512    -0.246     -1.42
   H+             5.416e-007  3.968e-007    -6.266    -6.401    -0.135      0.00
   H2O            5.551e+001  9.702e-001     1.744    -0.013     0.000     18.37
Cl           8.753e-001
   Cl-            8.753e-001  5.119e-001    -0.058    -0.291    -0.233     19.05
H(0)         5.603e-017
   H2             2.801e-017  3.427e-017   -16.553   -16.465     0.088     28.58
Na           8.753e-001
   Na+            8.753e-001  6.009e-001    -0.058    -0.221    -0.163      0.66
   NaOH           1.509e-017  1.847e-017   -16.821   -16.734     0.088     (0)  
O(0)         0.000e+000
   O2             0.000e+000  0.000e+000   -48.182   -48.094     0.088     32.59

------------------------------Saturation indices-------------------------------

	Phase               SI   log IAP   log K(338 K,   0 atm)

	H2(g)           -13.33    -16.47   -3.14  H2
	H2O(g)           -0.62     -0.01    0.61  H2O
	Halite           -2.17     -0.51    1.66  NaCl
	O2(g)           -45.02    -48.09   -3.08  O2


Reaction step 11.

Using solution 1.	
Using temperature 1.	
Using pressure 1.	
Using reaction 1.	

Reaction 1.	

	 1.000e+000 moles of the following reaction have been added:

	                 Relative
	Reactant            moles

	NaCl                 1.00000

	                 Relative
	Element             moles
	Cl                   1.00000
	Na                   1.00000

-----------------------------Solution composition------------------------------

	Elements           Molality       Moles

	Cl               1.000e+000  1.000e+000
	Na               1.000e+000  1.000e+000

----------------------------Description of solution----------------------------

                                       pH  =   6.400      Charge balance
                                       pe  =   8.125      Adjusted to redox equilibrium
       Specific Conductance (uS/cm, 65 oC) = 161291
                          Density (g/cm3)  =   1.01803
                        Activity of water  =   0.966
                           Ionic strength  =  1.000e+000
                       Mass of water (kg)  =  1.000e+000
                 Total alkalinity (eq/kg)  = -4.131e-017
                    Total carbon (mol/kg)  =  0.000e+000
                       Total CO2 (mol/kg)  =  0.000e+000
                      Temperature (deg C)  =  65.00
                           Pressure (atm)  =  0.25
                  Electrical balance (eq)  =  1.060e-016
 Percent error, 100*(Cat-|An|)/(Cat+|An|)  =   0.00
                               Iterations  =   8
                                  Total H  = 1.110124e+002
                                  Total O  = 5.550622e+001

----------------------------Distribution of species----------------------------

                                               Log       Log       Log    mole V
   Species          Molality    Activity  Molality  Activity     Gamma   cm3/mol

   H+             5.467e-007  3.985e-007    -6.262    -6.400    -0.137      0.00
   OH-            5.467e-007  3.047e-007    -6.262    -6.516    -0.254     -1.14
   H2O            5.551e+001  9.660e-001     1.744    -0.015     0.000     18.37
Cl           1.000e+000
   Cl-            1.000e+000  5.769e-001     0.000    -0.239    -0.239     19.13
H(0)         7.056e-033
   H2             3.528e-033  4.442e-033   -32.452   -32.352     0.100     28.58
Na           1.000e+000
   Na+            1.000e+000  6.907e-001     0.000    -0.161    -0.161      0.70
   NaOH           1.672e-017  2.104e-017   -16.777   -16.677     0.100     (0)  
O(0)         7.549e-017
   O2             3.774e-017  4.752e-017   -16.423   -16.323     0.100     32.59

------------------------------Saturation indices-------------------------------

	Phase               SI   log IAP   log K(338 K,   0 atm)

	H2(g)           -29.21    -32.35   -3.14  H2
	H2O(g)           -0.63     -0.02    0.61  H2O
	Halite           -2.06     -0.40    1.66  NaCl
	O2(g)           -13.25    -16.32   -3.08  O2


Reaction step 12.

Using solution 1.	
Using temperature 1.	
Using pressure 1.	
Using reaction 1.	

Reaction 1.	

	 1.104e+000 moles of the following reaction have been added:

	                 Relative
	Reactant            moles

	NaCl                 1.00000

	                 Relative
	Element             moles
	Cl                   1.00000
	Na                   1.00000

-----------------------------Solution composition------------------------------

	Elements           Molality       Moles

	Cl               1.104e+000  1.104e+000
	Na               1.104e+000  1.104e+000

----------------------------Description of solution----------------------------

                                       pH  =   6.398      Charge balance
                                       pe  =  -0.035      Adjusted to redox equilibrium
       Specific Conductance (uS/cm, 65 oC) = 173374
                          Density (g/cm3)  =   1.02174
                        Activity of water  =   0.962
                           Ionic strength  =  1.104e+000
                       Mass of water (kg)  =  1.000e+000
                 Total alkalinity (eq/kg)  =  1.188e-016
                    Total carbon (mol/kg)  =  0.000e+000
                       Total CO2 (mol/kg)  =  0.000e+000
                      Temperature (deg C)  =  65.00
                           Pressure (atm)  =  0.25
                  Electrical balance (eq)  = -1.140e-016
 Percent error, 100*(Cat-|An|)/(Cat+|An|)  =  -0.00
                               Iterations  =  15
                                  Total H  = 1.110124e+002
                                  Total O  = 5.550622e+001

----------------------------Distribution of species----------------------------

                                               Log       Log       Log    mole V
   Species          Molality    Activity  Molality  Activity     Gamma   cm3/mol

   OH-            5.504e-007  3.027e-007    -6.259    -6.519    -0.260     -0.91
   H+             5.504e-007  3.996e-007    -6.259    -6.398    -0.139      0.00
   H2O            5.551e+001  9.625e-001     1.744    -0.017     0.000     18.37
Cl           1.104e+000
   Cl-            1.104e+000  6.306e-001     0.043    -0.200    -0.243     19.18
H(0)         1.450e-016
   H2             7.251e-017  9.348e-017   -16.140   -16.029     0.110     28.58
Na           1.104e+000
   Na+            1.104e+000  7.673e-001     0.043    -0.115    -0.158      0.73
   NaOH           1.801e-017  2.323e-017   -16.744   -16.634     0.110     (0)  
O(0)         0.000e+000
   O2             0.000e+000  0.000e+000   -49.083   -48.973     0.110     32.59

------------------------------Saturation indices-------------------------------

	Phase               SI   log IAP   log K(338 K,   0 atm)

	H2(g)           -12.89    -16.03   -3.14  H2
	H2O(g)           -0.63     -0.02    0.61  H2O
	Halite           -1.98     -0.32    1.66  NaCl
	O2(g)           -45.89    -48.97   -3.08  O2


Reaction step 13.

Using solution 1.	
Using temperature 1.	
Using pressure 1.	
Using reaction 1.	

Reaction 1.	

	 1.225e+000 moles of the following reaction have been added:

	                 Relative
	Reactant            moles

	NaCl                 1.00000

	                 Relative
	Element             moles
	Cl                   1.00000
	Na                   1.00000

-----------------------------Solution composition------------------------------

	Elements           Molality       Moles

	Cl               1.225e+000  1.225e+000
	Na               1.225e+000  1.225e+000

----------------------------Description of solution----------------------------

                                       pH  =   6.397      Charge balance
                                       pe  =   0.534      Adjusted to redox equilibrium
       Specific Conductance (uS/cm, 65 oC) = 187176
                          Density (g/cm3)  =   1.02606
                        Activity of water  =   0.958
                           Ionic strength  =  1.225e+000
                       Mass of water (kg)  =  1.000e+000
                 Total alkalinity (eq/kg)  = -1.812e-017
                    Total carbon (mol/kg)  =  0.000e+000
                       Total CO2 (mol/kg)  =  0.000e+000
                      Temperature (deg C)  =  65.00
                           Pressure (atm)  =  0.25
                  Electrical balance (eq)  =  1.718e-016
 Percent error, 100*(Cat-|An|)/(Cat+|An|)  =   0.00
                               Iterations  =  24
                                  Total H  = 1.110124e+002
                                  Total O  = 5.550622e+001

----------------------------Distribution of species----------------------------

                                               Log       Log       Log    mole V
   Species          Molality    Activity  Molality  Activity     Gamma   cm3/mol

   H+             5.541e-007  4.008e-007    -6.256    -6.397    -0.141      0.00
   OH-            5.541e-007  3.005e-007    -6.256    -6.522    -0.266     -0.65
   H2O            5.551e+001  9.583e-001     1.744    -0.018     0.000     18.37
Cl           1.225e+000
   Cl-            1.225e+000  6.934e-001     0.088    -0.159    -0.247     19.24
H(0)         1.034e-017
   H2             5.168e-018  6.853e-018   -17.287   -17.164     0.123     28.58
Na           1.225e+000
   Na+            1.225e+000  8.597e-001     0.088    -0.066    -0.154      0.77
   NaOH           1.948e-017  2.584e-017   -16.710   -16.588     0.123     (0)  
O(0)         0.000e+000
   O2             0.000e+000  0.000e+000   -46.829   -46.707     0.123     32.59

------------------------------Saturation indices-------------------------------

	Phase               SI   log IAP   log K(338 K,   0 atm)

	H2(g)           -14.03    -17.16   -3.14  H2
	H2O(g)           -0.63     -0.02    0.61  H2O
	Halite           -1.89     -0.22    1.66  NaCl
	O2(g)           -43.63    -46.71   -3.08  O2


Reaction step 14.

Using solution 1.	
Using temperature 1.	
Using pressure 1.	
Using reaction 1.	

Reaction 1.	

	 1.556e+000 moles of the following reaction have been added:

	                 Relative
	Reactant            moles

	NaCl                 1.00000

	                 Relative
	Element             moles
	Cl                   1.00000
	Na                   1.00000

-----------------------------Solution composition------------------------------

	Elements           Molality       Moles

	Cl               1.556e+000  1.556e+000
	Na               1.556e+000  1.556e+000

----------------------------Description of solution----------------------------

                                       pH  =   6.395      Charge balance
                                       pe  =   8.050      Adjusted to redox equilibrium
[...]

----------------------------Description of solution----------------------------

                                       pH  =   6.600      Charge balance
                                       pe  =  10.389      Adjusted to redox equilibrium
       Specific Conductance (uS/cm, 65 oC) = 3467
                          Density (g/cm3)  =   0.98135
                        Activity of water  =   0.999
                           Ionic strength  =  1.509e-002
                       Mass of water (kg)  =  1.000e+000
                 Total alkalinity (eq/kg)  =  2.913e-007
                    Total carbon (mol/kg)  =  0.000e+000
                       Total CO2 (mol/kg)  =  0.000e+000
                      Temperature (deg C)  =  65.00
                  Electrical balance (eq)  = -7.209e-016
 Percent error, 100*(Cat-|An|)/(Cat+|An|)  =  -0.00
                               Iterations  =  20
                                  Total H  = 1.110124e+002
                                  Total O  = 5.555149e+001

----------------------------Distribution of species----------------------------

                                               Log       Log       Log    mole V
   Species          Molality    Activity  Molality  Activity     Gamma   cm3/mol

   OH-            5.729e-007  4.998e-007    -6.242    -6.301    -0.059     -3.86
   H+             2.816e-007  2.513e-007    -6.550    -6.600    -0.049      0.00
   H2O            5.551e+001  9.995e-001     1.744    -0.000     0.000     18.37
H(0)         1.045e-037
   H2             5.223e-038  5.241e-038   -37.282   -37.281     0.002     28.58
N(-3)        0.000e+000
   NH4+           0.000e+000  0.000e+000   -48.073   -48.135    -0.061     18.44
   NH3            0.000e+000  0.000e+000   -49.704   -49.703     0.002     24.85
N(0)         2.913e-007
   N2             1.456e-007  1.461e-007    -6.837    -6.835     0.002     29.29
N(3)         9.475e-012
   NO2-           9.475e-012  8.246e-012   -11.023   -11.084    -0.060     25.79
N(5)         1.509e-002
   NO3-           1.509e-002  1.313e-002    -1.821    -1.882    -0.060     31.04
Na           1.509e-002
   Na+            1.509e-002  1.323e-002    -1.821    -1.878    -0.057      0.05
   NaOH           6.591e-019  6.614e-019   -18.181   -18.180     0.002     (0)  
O(0)         7.282e-007
   O2             3.641e-007  3.654e-007    -6.439    -6.437     0.002     32.59

------------------------------Saturation indices-------------------------------

	Phase               SI   log IAP   log K(338 K,   1 atm)

	H2(g)           -34.14    -37.28   -3.14  H2
	H2O(g)           -0.61     -0.00    0.61  H2O
	N2(g)            -3.51     -6.84   -3.32  N2
	NH3(g)          -50.78    -49.70    1.08  NH3
	O2(g)            -3.36     -6.44   -3.08  O2


Reaction step 3.

Using solution 1.	
Using temperature 1.	
Using pressure 1.	
Using reaction 1.	

Reaction 1.	

	 3.017e-002 moles of the following reaction have been added:

	                 Relative
	Reactant            moles

	NaNO3                1.00000

	                 Relative
	Element             moles
	N                    1.00000
	Na                   1.00000
	O                    3.00000

-----------------------------Solution composition------------------------------

	Elements           Molality       Moles

	N                3.017e-002  3.017e-002
	Na               3.017e-002  3.017e-002

----------------------------Description of solution----------------------------

                                       pH  =   6.642      Charge balance
                                       pe  =  10.382      Adjusted to redox equilibrium
       Specific Conductance (uS/cm, 65 oC) = 6743
                          Density (g/cm3)  =   0.98215
                        Activity of water  =   0.999
                           Ionic strength  =  3.017e-002
                       Mass of water (kg)  =  1.000e+000
                 Total alkalinity (eq/kg)  =  3.969e-007
                    Total carbon (mol/kg)  =  0.000e+000
                       Total CO2 (mol/kg)  =  0.000e+000
                      Temperature (deg C)  =  65.00
                  Electrical balance (eq)  = -7.015e-014
 Percent error, 100*(Cat-|An|)/(Cat+|An|)  =  -0.00
                               Iterations  =  18
                                  Total H  = 1.110124e+002
                                  Total O  = 5.559673e+001

----------------------------Distribution of species----------------------------

                                               Log       Log       Log    mole V
   Species          Molality    Activity  Molality  Activity     Gamma   cm3/mol

   OH-            6.608e-007  5.501e-007    -6.180    -6.260    -0.080     -3.77
   H+             2.638e-007  2.282e-007    -6.579    -6.642    -0.063      0.00
   H2O            5.551e+001  9.990e-001     1.744    -0.000     0.000     18.37
H(0)         8.896e-038
   H2             4.448e-038  4.479e-038   -37.352   -37.349     0.003     28.58
N(-3)        0.000e+000
   NH4+           0.000e+000  0.000e+000   -48.127   -48.211    -0.084     18.49
   NH3            0.000e+000  0.000e+000   -49.740   -49.737     0.003     24.85
N(0)         3.970e-007
   N2             1.985e-007  1.999e-007    -6.702    -6.699     0.003     29.29
N(3)         1.620e-011
   NO2-           1.620e-011  1.342e-011   -10.790   -10.872    -0.082     25.86
N(5)         3.017e-002
   NO3-           3.017e-002  2.500e-002    -1.520    -1.602    -0.082     31.10
Na           3.017e-002
   Na+            3.017e-002  2.536e-002    -1.520    -1.596    -0.075      0.10
   NaOH           1.385e-018  1.395e-018   -17.859   -17.855     0.003     (0)  
O(0)         9.924e-007
   O2             4.962e-007  4.997e-007    -6.304    -6.301     0.003     32.59

------------------------------Saturation indices-------------------------------

	Phase               SI   log IAP   log K(338 K,   1 atm)

	H2(g)           -34.21    -37.35   -3.14  H2
	H2O(g)           -0.61     -0.00    0.61  H2O
	N2(g)            -3.38     -6.70   -3.32  N2
	NH3(g)          -50.82    -49.74    1.08  NH3
	O2(g)            -3.22     -6.30   -3.08  O2


Reaction step 4.

Using solution 1.	
Using temperature 1.	
Using pressure 1.	
Using reaction 1.	

Reaction 1.	

	 6.039e-002 moles of the following reaction have been added:

	                 Relative
	Reactant            moles

	NaNO3                1.00000

	                 Relative
	Element             moles
	N                    1.00000
	Na                   1.00000
	O                    3.00000

-----------------------------Solution composition------------------------------

	Elements           Molality       Moles

	N                6.039e-002  6.039e-002
	Na               6.039e-002  6.039e-002

----------------------------Description of solution----------------------------

                                       pH  =   6.687      Charge balance
                                       pe  =  10.369      Adjusted to redox equilibrium
       Specific Conductance (uS/cm, 65 oC) = 13039
                          Density (g/cm3)  =   0.98375
                        Activity of water  =   0.998
                           Ionic strength  =  6.039e-002
                       Mass of water (kg)  =  1.000e+000
                 Total alkalinity (eq/kg)  =  5.325e-007
                    Total carbon (mol/kg)  =  0.000e+000
                       Total CO2 (mol/kg)  =  0.000e+000
                      Temperature (deg C)  =  65.00
                  Electrical balance (eq)  = -2.878e-012
 Percent error, 100*(Cat-|An|)/(Cat+|An|)  =  -0.00
                               Iterations  =  18
                                  Total H  = 1.110124e+002
                                  Total O  = 5.568739e+001

----------------------------Distribution of species----------------------------

                                               Log       Log       Log    mole V
   Species          Molality    Activity  Molality  Activity     Gamma   cm3/mol

   OH-            7.782e-007  6.107e-007    -6.109    -6.214    -0.105     -3.62
   H+             2.457e-007  2.054e-007    -6.610    -6.687    -0.078      0.00
   H2O            5.551e+001  9.979e-001     1.744    -0.001     0.000     18.37
H(0)         7.593e-038
   H2             3.797e-038  3.850e-038   -37.421   -37.415     0.006     28.58
N(-3)        0.000e+000
   NH4+           0.000e+000  0.000e+000   -48.177   -48.290    -0.112     18.55
   NH3            0.000e+000  0.000e+000   -49.777   -49.770     0.006     24.85
N(0)         5.326e-007
   N2             2.663e-007  2.700e-007    -6.575    -6.569     0.006     29.29
N(3)         2.790e-011
   NO2-           2.790e-011  2.172e-011   -10.554   -10.663    -0.109     25.96
N(5)         6.039e-002
   NO3-           6.039e-002  4.701e-002    -1.219    -1.328    -0.109     31.20
Na           6.039e-002
   Na+            6.039e-002  4.825e-002    -1.219    -1.317    -0.097      0.17
   NaOH           2.906e-018  2.947e-018   -17.537   -17.531     0.006     (0)  
O(0)         1.331e-006
   O2             6.656e-007  6.750e-007    -6.177    -6.171     0.006     32.59

------------------------------Saturation indices-------------------------------

	Phase               SI   log IAP   log K(338 K,   1 atm)

	H2(g)           -34.28    -37.41   -3.14  H2
	H2O(g)           -0.61     -0.00    0.61  H2O
	N2(g)            -3.24     -6.57   -3.32  N2
	NH3(g)          -50.85    -49.77    1.08  NH3
	O2(g)            -3.09     -6.17   -3.08  O2


Reaction step 5.

Using solution 1.	
Using temperature 1.	
Using pressure 1.	
Using reaction 1.	

Reaction 1.	

	 1.208e-001 moles of the following reaction have been added:

	                 Relative
	Reactant            moles

	NaNO3                1.00000

	                 Relative
	Element             moles
	N                    1.00000
	Na                   1.00000
	O                    3.00000

-----------------------------Solution composition------------------------------

	Elements           Molality       Moles

	N                1.208e-001  1.208e-001
	Na               1.208e-001  1.208e-001

----------------------------Description of solution----------------------------

                                       pH  =   6.735      Charge balance
                                       pe  =  10.353      Adjusted to redox equilibrium
       Specific Conductance (uS/cm, 65 oC) = 25035
                          Density (g/cm3)  =   0.98692
                        Activity of water  =   0.996
                           Ionic strength  =  1.208e-001
                       Mass of water (kg)  =  1.000e+000
                 Total alkalinity (eq/kg)  =  7.021e-007
                    Total carbon (mol/kg)  =  0.000e+000
                       Total CO2 (mol/kg)  =  0.000e+000
                      Temperature (deg C)  =  65.00
                  Electrical balance (eq)  = -3.690e-014
 Percent error, 100*(Cat-|An|)/(Cat+|An|)  =  -0.00
                               Iterations  =  19
                                  Total H  = 1.110124e+002
                                  Total O  = 5.586859e+001

----------------------------Distribution of species----------------------------

                                               Log       Log       Log    mole V
   Species          Molality    Activity  Molality  Activity     Gamma   cm3/mol

   OH-            9.304e-007  6.799e-007    -6.031    -6.168    -0.136     -3.39
   H+             2.284e-007  1.841e-007    -6.641    -6.735    -0.094      0.00
   H2O            5.551e+001  9.959e-001     1.744    -0.002     0.000     18.37
H(0)         6.463e-038
   H2             3.232e-038  3.323e-038   -37.491   -37.478     0.012     28.58
N(-3)        0.000e+000
   NH4+           0.000e+000  0.000e+000   -48.222   -48.370    -0.149     18.62
   NH3            0.000e+000  0.000e+000   -49.815   -49.803     0.012     24.85
N(0)         7.021e-007
   N2             3.510e-007  3.609e-007    -6.455    -6.443     0.012     29.29
N(3)         4.826e-011
   NO2-           4.826e-011  3.479e-011   -10.316   -10.458    -0.142     26.10
N(5)         1.208e-001
   NO3-           1.208e-001  8.708e-002    -0.918    -1.060    -0.142     31.33
Na           1.208e-001
   Na+            1.208e-001  9.126e-002    -0.918    -1.040    -0.122      0.26
   NaOH           6.035e-018  6.205e-018   -17.219   -17.207     0.012     (0)  
O(0)         1.755e-006
   O2             8.776e-007  9.024e-007    -6.057    -6.045     0.012     32.59

------------------------------Saturation indices-------------------------------

	Phase               SI   log IAP   log K(338 K,   1 atm)

	H2(g)           -34.34    -37.48   -3.14  H2
	H2O(g)           -0.61     -0.00    0.61  H2O
	N2(g)            -3.12     -6.44   -3.32  N2
	NH3(g)          -50.88    -49.80    1.08  NH3
	O2(g)            -2.97     -6.04   -3.08  O2


Reaction step 6.

Using solution 1.	
Using temperature 1.	
Using pressure 1.	
Using reaction 1.	

Reaction 1.	

	 2.514e-001 moles of the following reaction have been added:

	                 Relative
	Reactant            moles

	NaNO3                1.00000

	                 Relative
	Element             moles
	N                    1.00000
	Na                   1.00000
	O                    3.00000

-----------------------------Solution composition------------------------------

	Elements           Molality       Moles

	N                2.514e-001  2.514e-001
	Na               2.514e-001  2.514e-001

----------------------------Description of solution----------------------------

                                       pH  =   6.784      Charge balance
                                       pe  =  10.338      Adjusted to redox equilibrium
       Specific Conductance (uS/cm, 65 oC) = 49670
                          Density (g/cm3)  =   0.99368
                        Activity of water  =   0.991
                           Ionic strength  =  2.514e-001
                       Mass of water (kg)  =  1.000e+000
                 Total alkalinity (eq/kg)  =  9.200e-007
                    Total carbon (mol/kg)  =  0.000e+000
                       Total CO2 (mol/kg)  =  0.000e+000
                      Temperature (deg C)  =  65.00
                  Electrical balance (eq)  = -2.781e-012
 Percent error, 100*(Cat-|An|)/(Cat+|An|)  =  -0.00
                               Iterations  =  19
                                  Total H  = 1.110124e+002
                                  Total O  = 5.626042e+001

----------------------------Distribution of species----------------------------

                                               Log       Log       Log    mole V
   Species          Molality    Activity  Molality  Activity     Gamma   cm3/mol

   OH-            1.132e-006  7.579e-007    -5.946    -6.120    -0.174     -2.98
   H+             2.119e-007  1.644e-007    -6.674    -6.784    -0.110      0.00
   H2O            5.551e+001  9.915e-001     1.744    -0.004     0.000     18.37
H(0)         5.373e-038
   H2             2.686e-038  2.847e-038   -37.571   -37.546     0.025     28.58
N(-3)        0.000e+000
   NH4+           0.000e+000  0.000e+000   -48.260   -48.455    -0.195     18.71
   NH3            0.000e+000  0.000e+000   -49.864   -49.839     0.025     24.85
N(0)         9.201e-007
   N2             4.601e-007  4.875e-007    -6.337    -6.312     0.025     29.29
N(3)         8.644e-011
   NO2-           8.644e-011  5.659e-011   -10.063   -10.247    -0.184     26.32
N(5)         2.514e-001
   NO3-           2.514e-001  1.646e-001    -0.600    -0.784    -0.184     31.53
Na           2.514e-001
   Na+            2.514e-001  1.794e-001    -0.600    -0.746    -0.147      0.37
   NaOH           1.283e-017  1.360e-017   -16.892   -16.867     0.025     (0)  
O(0)         2.300e-006
   O2             1.150e-006  1.219e-006    -5.939    -5.914     0.025     32.59

------------------------------Saturation indices-------------------------------

	Phase               SI   log IAP   log K(338 K,   1 atm)

	H2(g)           -34.41    -37.55   -3.14  H2
	H2O(g)           -0.61     -0.00    0.61  H2O
	N2(g)            -2.99     -6.31   -3.32  N2
	NH3(g)          -50.92    -49.84    1.08  NH3
	O2(g)            -2.84     -5.91   -3.08  O2


Reaction step 7.

Using solution 1.	
Using temperature 1.	
Using pressure 1.	
Using reaction 1.	

Reaction 1.	

	 5.010e-001 moles of the following reaction have been added:

	                 Relative
	Reactant            moles

	NaNO3                1.00000

	                 Relative
	Element             moles
	N                    1.00000
	Na                   1.00000
	O                    3.00000

-----------------------------Solution composition------------------------------

	Elements           Molality       Moles

	N                5.010e-001  5.010e-001
	Na               5.010e-001  5.010e-001

----------------------------Description of solution----------------------------

                                       pH  =   6.826      Charge balance
                                       pe  =  10.328      Adjusted to redox equilibrium
       Specific Conductance (uS/cm, 65 oC) = 90097
                          Density (g/cm3)  =   1.00633
                        Activity of water  =   0.983
                           Ionic strength  =  5.010e-001
                       Mass of water (kg)  =  1.000e+000
                 Total alkalinity (eq/kg)  =  1.153e-006
                    Total carbon (mol/kg)  =  0.000e+000
                       Total CO2 (mol/kg)  =  0.000e+000
                      Temperature (deg C)  =  65.00
                  Electrical balance (eq)  = -2.808e-011
 Percent error, 100*(Cat-|An|)/(Cat+|An|)  =  -0.00
                               Iterations  =   9
                                  Total H  = 1.110124e+002
                                  Total O  = 5.700922e+001

----------------------------Distribution of species----------------------------

                                               Log       Log       Log    mole V
   Species          Molality    Activity  Molality  Activity     Gamma   cm3/mol

   OH-            1.352e-006  8.272e-007    -5.869    -6.082    -0.213     -2.31
   H+             1.989e-007  1.493e-007    -6.701    -6.826    -0.125      0.00
   H2O            5.551e+001  9.830e-001     1.744    -0.007     0.000     18.37
H(0)         4.365e-038
   H2             2.183e-038  2.449e-038   -37.661   -37.611     0.050     28.58
N(-3)        0.000e+000
   NH4+           0.000e+000  0.000e+000   -48.288   -48.533    -0.245     18.80
   NH3            0.000e+000  0.000e+000   -49.925   -49.875     0.050     24.85
N(0)         1.154e-006
   N2             5.768e-007  6.474e-007    -6.239    -6.189     0.050     29.29
N(3)         1.495e-010
   NO2-           1.495e-010  8.841e-011    -9.825   -10.053    -0.228     26.60
N(5)         5.010e-001
   NO3-           5.010e-001  2.963e-001    -0.300    -0.528    -0.228     31.78
Na           5.010e-001
   Na+            5.010e-001  3.444e-001    -0.300    -0.463    -0.163      0.52
   NaOH           2.538e-017  2.849e-017   -16.595   -16.545     0.050     (0)  
O(0)         2.883e-006
   O2             1.441e-006  1.618e-006    -5.841    -5.791     0.050     32.59

------------------------------Saturation indices-------------------------------

	Phase               SI   log IAP   log K(338 K,   1 atm)

	H2(g)           -34.47    -37.61   -3.14  H2
	H2O(g)           -0.62     -0.01    0.61  H2O
	N2(g)            -2.86     -6.19   -3.32  N2
	NH3(g)          -50.95    -49.88    1.08  NH3
	O2(g)            -2.71     -5.79   -3.08  O2


------------------
End of simulation.
------------------

-------------------------------------
Reading input data for simulation 10.
-------------------------------------

-------------------------------
End of Run after 1.917 Seconds.
-------------------------------

