   Input file: Vm_salt
  Output file: Vm_salt.out
Database file: ../database/phreeqc.dat

------------------
Reading data base.
------------------

	SOLUTION_MASTER_SPECIES
	SOLUTION_SPECIES
	PHASES
	EXCHANGE_MASTER_SPECIES
	EXCHANGE_SPECIES
	SURFACE_MASTER_SPECIES
	SURFACE_SPECIES
	RATES
	END
------------------------------------
Reading input data for simulation 1.
------------------------------------

	DATABASE ../database/phreeqc.dat
	SOLUTION 1
	 pH 7 charge
	END
-------------------------------------------
Beginning of initial solution calculations.
-------------------------------------------

Initial solution 1.	

-----------------------------Solution composition------------------------------

	Elements           Molality       Moles

	Pure water     

----------------------------Description of solution----------------------------

                                       pH  =   7.000      Charge balance
                                       pe  =   4.000    
       Specific Conductance (uS/cm, 25 oC) = 0
                          Density (g/cm3)  =   0.99704
                        Activity of water  =   1.000
                           Ionic strength  =  1.001e-007
                       Mass of water (kg)  =  1.000e+000
                 Total alkalinity (eq/kg)  =  6.310e-018
                    Total carbon (mol/kg)  =  0.000e+000
                       Total CO2 (mol/kg)  =  0.000e+000
                      Temperature (deg C)  =  25.00
                  Electrical balance (eq)  = -6.310e-018
 Percent error, 100*(Cat-|An|)/(Cat+|An|)  =  -0.00
                               Iterations  =   2
                                  Total H  = 1.110124e+002
                                  Total O  = 5.550622e+001

----------------------------Distribution of species----------------------------

                                               Log       Log       Log    mole V
   Species          Molality    Activity  Molality  Activity     Gamma   cm3/mol

   OH-            1.001e-007  1.001e-007    -6.999    -7.000    -0.000     -4.11
   H+             1.001e-007  1.001e-007    -6.999    -7.000    -0.000      0.00
   H2O            5.551e+001  1.000e+000     1.744    -0.000     0.000     18.07
H(0)         1.419e-025
   H2             7.095e-026  7.095e-026   -25.149   -25.149     0.000     28.61
O(0)         0.000e+000
   O2             0.000e+000  0.000e+000   -42.082   -42.082     0.000     30.40

------------------------------Saturation indices-------------------------------

	Phase               SI   log IAP   log K(298 K,   1 atm)

	H2(g)           -22.05    -25.15   -3.10  H2
	H2O(g)           -1.50     -0.00    1.50  H2O
	O2(g)           -39.19    -42.08   -2.89  O2


------------------
End of simulation.
------------------

------------------------------------
Reading input data for simulation 2.
------------------------------------

	USE solution 1
	REACTION_TEMPERATURE
	 25.000000
	REACTION_PRESSURE
	 0.000000
	REACTION
	 HCl 1
	0 0.003345556 0.003509761 0.005804099 0.008152915  0.010050 0.010902557 0.019919104 0.020320 0.020722728 0.02917534 0.030010 0.039640309 0.040000 0.050500 0.057650 0.06183938 0.075390 0.079690 0.079931544 0.090713565 
	0.098980 0.100100 0.115900 0.124000 0.125650 0.138200 0.148360 0.148800 0.152170 0.198440 0.201350 0.217600 0.221790 0.230300 0.256600 0.258580 0.305100 0.317000 0.343670 0.376200 0.378892 0.378799 0.378888 0.400010 0.498090 0.564460 0.596830 0.608000 0.613160 0.634710 0.633689 0.696000 0.697270 0.793200 0.799170 0.892377 0.898500 0.900260 0.968600 0.968790 1.022200 1.154549 1.203100 1.276120 1.483900 1.618400 1.851100 1.954635 1.962320 2.095800 2.114800 2.195000 2.226783 2.264800 2.395500 2.457900 2.520000 2.764100 2.957400 3.014700 3.060917 3.191000 3.345673 3.852700 4.216778 4.216452 4.512961 4.631400 4.813464 4.813347 4.912400 5.116893 5.116862 5.316000 5.424050 5.423779 5.734175 5.734149 6.006400 6.048032 6.365700 6.625300 6.713663 6.734294 6.836000 6.963957 7.041466 7.372793 7.616000 7.708123 8.047887 8.391121 8.447000 8.739741 9.092376 9.294900 9.448106 9.810296
	USER_GRAPH
	 -headings HCl
	-axis_titles "(Ionic Strength)^0.5 / (mol/kg H2O)^0.5" "molar volume / (cm3/mol)"
	-axis_scale x_axis 0 3
	-axis_scale y_axis 14 32
	10 data 0, 18.03, 17.947, 17.955, 18.019, 18.003401, 18.053, 18.089, 18.151590, 18.104, 18.1, 18.144103, 18.128, 18.147104, 18.260570, 18.193491, 18.172, 18.291331, 18.251638, 18.221, 18.226, 18.293496, 18.360171, 18.172784, 18.401682, 18.425164, 18.400000, 18.375462, 18.421767, 18.420000, 18.441524, 18.551196, 18.351572, 18.520000, 18.528130, 18.509595, 18.540000, 18.580000, 18.569794, 18.630000, 18.620087, 18.644680, 18.706760, 18.620617, 18.639675, 18.709022, 18.752466, 18.771139, 18.739918, 18.796572, 18.809065, 18.800181, 18.824530, 18.848829, 18.872334, 18.907554, 18.920422, 18.929376, 18.966125, 18.966871, 18.949297, 18.997995, 19.038362, 19.041280, 19.127097, 19.158526, 19.205842, 19.278155, 19.266918, 19.279682, 19.347808, 19.347989, 19.369001, 19.338937, 19.385524, 19.408502, 19.421342, 19.382531, 19.461480, 19.475456, 19.547519, 19.560486, 19.604451, 19.618635, 19.722417, 19.824761, 19.823639, 19.863619, 19.868453, 19.915521, 19.922431, 19.912622, 19.978912, 19.972591, 20.022080, 20.004175, 20.065494, 20.064079, 20.049594, 20.081165, 20.113426, 20.155812, 20.162891, 20.205003, 20.202267, 20.233798, 20.229769, 20.244985, 20.285265, 20.285097, 20.325116, 20.361456, 20.402034, 20.376488, 20.436253, 20.473638, 20.464062, 20.509998, 20.547910,
	20 dim d(119)
	30 read d(1), d(2), d(3), d(4), d(5), d(6), d(7), d(8), d(9), d(10), d(11), d(12), d(13), d(14), d(15), d(16), d(17), d(18), d(19), d(20), d(21), d(22), d(23), d(24), d(25), d(26), d(27), d(28), d(29), d(30), d(31), d(32), d(33), d(34), d(35), d(36), d(37), d(38), d(39), d(40), d(41), d(42), d(43), d(44), d(45), d(46), d(47), d(48), d(49), d(50), d(51), d(52), d(53), d(54), d(55), d(56), d(57), d(58), d(59), d(60), d(61), d(62), d(63), d(64), d(65), d(66), d(67), d(68), d(69), d(70), d(71), d(72), d(73), d(74), d(75), d(76), d(77), d(78), d(79), d(80), d(81), d(82), d(83), d(84), d(85), d(86), d(87), d(88), d(89), d(90), d(91), d(92), d(93), d(94), d(95), d(96), d(97), d(98), d(99), d(100), d(101), d(102), d(103), d(104), d(105), d(106), d(107), d(108), d(109), d(110), d(111), d(112), d(113), d(114), d(115), d(116), d(117), d(118), d(119)
	40 if step_no = 1 then put(rho, 10)
	50 if step_no > 1 then Vmol = (1e3 + tot("Cl") * 36.461) / (tot("Cl") * rho) - 1e3 / (tot("Cl") * get(10))
	60 if step_no = 1 then dif = 0 else dif = Vmol - d(step_no)
	62 if tot("Cl") > 10 or tc > 200 then goto 150
	100 if step_no = 1 then goto 150
	102 Vmol = Vm("Cl-")
	110 plot_xy mu^0.5, d(step_no), symbol = Triangle, line_w = 0, color = Blue
	120 plot_xy mu^0.5, Vmol, symbol = None, color = Blue, line_width = 2
	122 if step_no > 3 then goto 150
	130 V0 = 18.02
	134 if step_no = 2 then plot_xy 0, V0, symbol = None, color = Blue, line_width = 2 else                        plot_xy 4, V0 + DH_Av * 4 * 0.5, symbol = None, color = Blue, line_width = 1
	150 end
	END
-----------------------------------------
Beginning of batch-reaction calculations.
-----------------------------------------

Reaction step 1.

Using solution 1.	
Using temperature 1.	
Using pressure 1.	
Using reaction 1.	

Reaction 1.	

	 0.000e+000 moles of the following reaction have been added:

	                 Relative
	Reactant            moles

	HCl                  1.00000

	                 Relative
	Element             moles
	Cl                   1.00000
	H                    1.00000

-----------------------------Solution composition------------------------------

	Elements           Molality       Moles

	Pure water     

----------------------------Description of solution----------------------------

                                       pH  =   7.000      Charge balance
                                       pe  =   0.176      Adjusted to redox equilibrium
       Specific Conductance (uS/cm, 25 oC) = 0
                          Density (g/cm3)  =   0.99700
                        Activity of water  =   1.000
                           Ionic strength  =  1.001e-007
                       Mass of water (kg)  =  1.000e+000
                 Total alkalinity (eq/kg)  =  3.856e-016
                    Total carbon (mol/kg)  =  0.000e+000
                       Total CO2 (mol/kg)  =  0.000e+000
                      Temperature (deg C)  =  25.00
                           Pressure (atm)  =  0.03
                  Electrical balance (eq)  = -3.856e-016
 Percent error, 100*(Cat-|An|)/(Cat+|An|)  =  -0.00
                               Iterations  =   8
                                  Total H  = 1.110124e+002
                                  Total O  = 5.550622e+001

----------------------------Distribution of species----------------------------

                                               Log       Log       Log    mole V
   Species          Molality    Activity  Molality  Activity     Gamma   cm3/mol

   OH-            1.001e-007  1.001e-007    -6.999    -7.000    -0.000     -4.11
   H+             1.001e-007  1.001e-007    -6.999    -7.000    -0.000      0.00
   H2O            5.551e+001  1.000e+000     1.744     0.000     0.000     18.07
H(0)         6.310e-018
   H2             3.155e-018  3.155e-018   -17.501   -17.501     0.000     28.61
O(0)         0.000e+000
   O2             0.000e+000  0.000e+000   -57.378   -57.378     0.000     30.40

------------------------------Saturation indices-------------------------------

	Phase               SI   log IAP   log K(298 K,   0 atm)

	H2(g)           -14.40    -17.50   -3.10  H2
	H2O(g)           -1.50      0.00    1.50  H2O
	O2(g)           -54.49    -57.38   -2.89  O2


Reaction step 2.

Using solution 1.	
Using temperature 1.	
Using pressure 1.	
Using reaction 1.	

Reaction 1.	

	 3.346e-003 moles of the following reaction have been added:

	                 Relative
	Reactant            moles

	HCl                  1.00000

	                 Relative
	Element             moles
	Cl                   1.00000
	H                    1.00000

-----------------------------Solution composition------------------------------

	Elements           Molality       Moles

	Cl               3.346e-003  3.346e-003

----------------------------Description of solution----------------------------

                                       pH  =   2.501      Charge balance
                                       pe  =  15.078      Adjusted to redox equilibrium
       Specific Conductance (uS/cm, 25 oC) = 1375
                          Density (g/cm3)  =   0.99706
                        Activity of water  =   1.000
                           Ionic strength  =  3.346e-003
                       Mass of water (kg)  =  1.000e+000
                 Total alkalinity (eq/kg)  = -3.346e-003
                    Total carbon (mol/kg)  =  0.000e+000
                       Total CO2 (mol/kg)  =  0.000e+000
                      Temperature (deg C)  =  25.00
                           Pressure (atm)  =  0.03
                  Electrical balance (eq)  =  2.387e-011
 Percent error, 100*(Cat-|An|)/(Cat+|An|)  =   0.00
                               Iterations  =  13
                                  Total H  = 1.110158e+002
                                  Total O  = 5.550622e+001

----------------------------Distribution of species----------------------------

                                               Log       Log       Log    mole V
   Species          Molality    Activity  Molality  Activity     Gamma   cm3/mol

   H+             3.346e-003  3.157e-003    -2.476    -2.501    -0.025      0.00
   OH-            3.383e-012  3.174e-012   -11.471   -11.498    -0.028     -4.05
   H2O            5.551e+001  9.999e-001     1.744    -0.000     0.000     18.07
Cl           3.346e-003
   Cl-            3.346e-003  3.139e-003    -2.476    -2.503    -0.028     18.09
H(0)         9.834e-039
   H2             4.917e-039  4.921e-039   -38.308   -38.308     0.000     28.61
O(0)         3.440e-016
   O2             1.720e-016  1.721e-016   -15.764   -15.764     0.000     30.40

------------------------------Saturation indices-------------------------------

	Phase               SI   log IAP   log K(298 K,   0 atm)

	H2(g)           -35.21    -38.31   -3.10  H2
	H2O(g)           -1.50     -0.00    1.50  H2O
	O2(g)           -12.87    -15.76   -2.89  O2


Reaction step 3.

Using solution 1.	
Using temperature 1.	
Using pressure 1.	
Using reaction 1.	

Reaction 1.	

	 3.510e-003 moles of the following reaction have been added:

	                 Relative
	Reactant            moles

	HCl                  1.00000

	                 Relative
	Element             moles
	Cl                   1.00000
	H                    1.00000

-----------------------------Solution composition------------------------------

	Elements           Molality       Moles

	Cl               3.510e-003  3.510e-003

----------------------------Description of solution----------------------------

                                       pH  =   2.480      Charge balance
                                       pe  =   3.313      Adjusted to redox equilibrium
       Specific Conductance (uS/cm, 25 oC) = 1441
                          Density (g/cm3)  =   0.99706
                        Activity of water  =   1.000
                           Ionic strength  =  3.510e-003
                       Mass of water (kg)  =  1.000e+000
                 Total alkalinity (eq/kg)  = -3.510e-003
                    Total carbon (mol/kg)  =  0.000e+000
                       Total CO2 (mol/kg)  =  0.000e+000
                      Temperature (deg C)  =  25.00
                           Pressure (atm)  =  0.03
                  Electrical balance (eq)  =  4.943e-018
 Percent error, 100*(Cat-|An|)/(Cat+|An|)  =   0.00
                               Iterations  =  10
                                  Total H  = 1.110159e+002
                                  Total O  = 5.550622e+001

----------------------------Distribution of species----------------------------

                                               Log       Log       Log    mole V
   Species          Molality    Activity  Molality  Activity     Gamma   cm3/mol

   H+             3.510e-003  3.308e-003    -2.455    -2.480    -0.026      0.00
   OH-            3.233e-012  3.029e-012   -11.490   -11.519    -0.028     -4.05
   H2O            5.551e+001  9.999e-001     1.744    -0.000     0.000     18.07
Cl           3.510e-003
   Cl-            3.510e-003  3.289e-003    -2.455    -2.483    -0.028     18.09
H(0)         3.670e-015
   H2             1.835e-015  1.837e-015   -14.736   -14.736     0.000     28.61
O(0)         0.000e+000
   O2             0.000e+000  0.000e+000   -62.909   -62.908     0.000     30.40

------------------------------Saturation indices-------------------------------

	Phase               SI   log IAP   log K(298 K,   0 atm)

	H2(g)           -11.63    -14.74   -3.10  H2
	H2O(g)           -1.50     -0.00    1.50  H2O
	O2(g)           -60.02    -62.91   -2.89  O2


Reaction step 4.

Using solution 1.	
Using temperature 1.	
Using pressure 1.	
Using reaction 1.	

Reaction 1.	

	 5.804e-003 moles of the following reaction have been added:

	                 Relative
	Reactant            moles

	HCl                  1.00000

	                 Relative
	Element             moles
	Cl                   1.00000
	H                    1.00000

-----------------------------Solution composition------------------------------

	Elements           Molality       Moles

	Cl               5.804e-003  5.804e-003

----------------------------Description of solution----------------------------

                                       pH  =   2.268      Charge balance
                                       pe  =   2.957      Adjusted to redox equilibrium
       Specific Conductance (uS/cm, 25 oC) = 2363
                          Density (g/cm3)  =   0.99711
                        Activity of water  =   1.000
                           Ionic strength  =  5.804e-003
                       Mass of water (kg)  =  1.000e+000
                 Total alkalinity (eq/kg)  = -5.804e-003
                    Total carbon (mol/kg)  =  0.000e+000
                       Total CO2 (mol/kg)  =  0.000e+000
                      Temperature (deg C)  =  25.00
                           Pressure (atm)  =  0.03
                  Electrical balance (eq)  = -3.811e-018
 Percent error, 100*(Cat-|An|)/(Cat+|An|)  =  -0.00
                               Iterations  =  13
                                  Total H  = 1.110182e+002
                                  Total O  = 5.550622e+001

----------------------------Distribution of species----------------------------

                                               Log       Log       Log    mole V
   Species          Molality    Activity  Molality  Activity     Gamma   cm3/mol

   H+             5.804e-003  5.395e-003    -2.236    -2.268    -0.032      0.00
   OH-            2.016e-012  1.857e-012   -11.695   -11.731    -0.036     -4.03
   H2O            5.551e+001  9.998e-001     1.744    -0.000     0.000     18.07
Cl           5.804e-003
   Cl-            5.804e-003  5.347e-003    -2.236    -2.272    -0.036     18.11
H(0)         5.028e-014
   H2             2.514e-014  2.517e-014   -13.600   -13.599     0.001     28.61
O(0)         0.000e+000
   O2             0.000e+000  0.000e+000   -65.183   -65.182     0.001     30.40

------------------------------Saturation indices-------------------------------

	Phase               SI   log IAP   log K(298 K,   0 atm)

	H2(g)           -10.50    -13.60   -3.10  H2
	H2O(g)           -1.50     -0.00    1.50  H2O
	O2(g)           -62.29    -65.18   -2.89  O2


Reaction step 5.

Using solution 1.	
Using temperature 1.	
Using pressure 1.	
Using reaction 1.	

Reaction 1.	

	 8.153e-003 moles of the following reaction have been added:

	                 Relative
	Reactant            moles

	HCl                  1.00000

	                 Relative
	Element             moles
	Cl                   1.00000
	H                    1.00000

-----------------------------Solution composition------------------------------

	Elements           Molality       Moles

	Cl               8.153e-003  8.153e-003

----------------------------Description of solution----------------------------

                                       pH  =   2.125      Charge balance
                                       pe  =  15.628      Adjusted to redox equilibrium
       Specific Conductance (uS/cm, 25 oC) = 3298
                          Density (g/cm3)  =   0.99715
                        Activity of water  =   1.000
                           Ionic strength  =  8.153e-003
                       Mass of water (kg)  =  1.000e+000
                 Total alkalinity (eq/kg)  = -8.153e-003
                    Total carbon (mol/kg)  =  0.000e+000
                       Total CO2 (mol/kg)  =  0.000e+000
                      Temperature (deg C)  =  25.00
                           Pressure (atm)  =  0.03
                  Electrical balance (eq)  = -4.299e-018
 Percent error, 100*(Cat-|An|)/(Cat+|An|)  =  -0.00
                               Iterations  =  13
                                  Total H  = 1.110206e+002
                                  Total O  = 5.550622e+001

----------------------------Distribution of species----------------------------

                                               Log       Log       Log    mole V
   Species          Molality    Activity  Molality  Activity     Gamma   cm3/mol

   H+             8.153e-003  7.498e-003    -2.089    -2.125    -0.036      0.00
   OH-            1.471e-012  1.336e-012   -11.832   -11.874    -0.042     -4.01
   H2O            5.551e+001  9.997e-001     1.744    -0.000     0.000     18.07
Cl           8.153e-003
   Cl-            8.153e-003  7.408e-003    -2.089    -2.130    -0.042     18.12
H(0)         4.416e-039
   H2             2.208e-039  2.212e-039   -38.656   -38.655     0.001     28.61
O(0)         1.700e-015
   O2             8.500e-016  8.516e-016   -15.071   -15.070     0.001     30.40

------------------------------Saturation indices-------------------------------

	Phase               SI   log IAP   log K(298 K,   0 atm)

	H2(g)           -35.55    -38.66   -3.10  H2
	H2O(g)           -1.50     -0.00    1.50  H2O
	O2(g)           -12.18    -15.07   -2.89  O2


Reaction step 6.

Using solution 1.	
Using temperature 1.	
Using pressure 1.	
Using reaction 1.	

Reaction 1.	

	 1.005e-002 moles of the following reaction have been added:

	                 Relative
	Reactant            moles

	HCl                  1.00000

	                 Relative
	Element             moles
	Cl                   1.00000
	H                    1.00000

-----------------------------Solution composition------------------------------

	Elements           Molality       Moles

	Cl               1.005e-002  1.005e-002

----------------------------Description of solution----------------------------

                                       pH  =   2.037      Charge balance
                                       pe  =   3.622      Adjusted to redox equilibrium
       Specific Conductance (uS/cm, 25 oC) = 4047
                          Density (g/cm3)  =   0.99718
                        Activity of water  =   1.000
                           Ionic strength  =  1.005e-002
                       Mass of water (kg)  =  1.000e+000
                 Total alkalinity (eq/kg)  = -1.005e-002
                    Total carbon (mol/kg)  =  0.000e+000
                       Total CO2 (mol/kg)  =  0.000e+000
                      Temperature (deg C)  =  25.00
                           Pressure (atm)  =  0.03
                  Electrical balance (eq)  =  1.499e-015
 Percent error, 100*(Cat-|An|)/(Cat+|An|)  =   0.00
                               Iterations  =  11
                                  Total H  = 1.110225e+002
                                  Total O  = 5.550622e+001

----------------------------Distribution of species----------------------------

                                               Log       Log       Log    mole V
   Species          Molality    Activity  Molality  Activity     Gamma   cm3/mol

   H+             1.005e-002  9.177e-003    -1.998    -2.037    -0.039      0.00
   OH-            1.213e-012  1.092e-012   -11.916   -11.962    -0.046     -4.00
   H2O            5.551e+001  9.997e-001     1.744    -0.000     0.000     18.07
Cl           1.005e-002
   Cl-            1.005e-002  9.046e-003    -1.998    -2.044    -0.046     18.13
H(0)         6.782e-015
   H2             3.391e-015  3.399e-015   -14.470   -14.469     0.001     28.61
O(0)         0.000e+000
   O2             0.000e+000  0.000e+000   -63.444   -63.443     0.001     30.40

------------------------------Saturation indices-------------------------------

	Phase               SI   log IAP   log K(298 K,   0 atm)

	H2(g)           -11.37    -14.47   -3.10  H2
	H2O(g)           -1.50     -0.00    1.50  H2O
	O2(g)           -60.55    -63.44   -2.89  O2


Reaction step 7.

Using solution 1.	
Using temperature 1.	
Using pressure 1.	
Using reaction 1.	

Reaction 1.	

	 1.090e-002 moles of the following reaction have been added:

	                 Relative
	Reactant            moles

	HCl                  1.00000

	                 Relative
	Element             moles
	Cl                   1.00000
	H                    1.00000

-----------------------------Solution composition------------------------------

	Elements           Molality       Moles

	Cl               1.090e-002  1.090e-002

----------------------------Description of solution----------------------------

                                       pH  =   2.003      Charge balance
                                       pe  =  15.805      Adjusted to redox equilibrium
       Specific Conductance (uS/cm, 25 oC) = 4382
                          Density (g/cm3)  =   0.99720
                        Activity of water  =   1.000
                           Ionic strength  =  1.090e-002
                       Mass of water (kg)  =  1.000e+000
                 Total alkalinity (eq/kg)  = -1.090e-002
                    Total carbon (mol/kg)  =  0.000e+000
                       Total CO2 (mol/kg)  =  0.000e+000
                      Temperature (deg C)  =  25.00
                           Pressure (atm)  =  0.03
                  Electrical balance (eq)  =  3.079e-015
 Percent error, 100*(Cat-|An|)/(Cat+|An|)  =   0.00
                               Iterations  =  13
                                  Total H  = 1.110233e+002
                                  Total O  = 5.550622e+001

----------------------------Distribution of species----------------------------

                                               Log       Log       Log    mole V
   Species          Molality    Activity  Molality  Activity     Gamma   cm3/mol

   H+             1.090e-002  9.927e-003    -1.962    -2.003    -0.041      0.00
   OH-            1.126e-012  1.009e-012   -11.948   -11.996    -0.048     -4.00
   H2O            5.551e+001  9.996e-001     1.744    -0.000     0.000     18.07
Cl           1.090e-002
   Cl-            1.090e-002  9.776e-003    -1.962    -2.010    -0.047     18.13
H(0)         3.414e-039
   H2             1.707e-039  1.711e-039   -38.768   -38.767     0.001     28.61
O(0)         2.838e-015
   O2             1.419e-015  1.423e-015   -14.848   -14.847     0.001     30.40

------------------------------Saturation indices-------------------------------

	Phase               SI   log IAP   log K(298 K,   0 atm)

	H2(g)           -35.67    -38.77   -3.10  H2
	H2O(g)           -1.50     -0.00    1.50  H2O
	O2(g)           -11.95    -14.85   -2.89  O2


Reaction step 8.

Using solution 1.	
Using temperature 1.	
Using pressure 1.	
Using reaction 1.	

Reaction 1.	

	 1.992e-002 moles of the following reaction have been added:

	                 Relative
	Reactant            moles

	HCl                  1.00000

	                 Relative
	Element             moles
	Cl                   1.00000
	H                    1.00000

-----------------------------Solution composition------------------------------

	Elements           Molality       Moles

	Cl               1.992e-002  1.992e-002

----------------------------Description of solution----------------------------

                                       pH  =   1.752      Charge balance
                                       pe  =  16.020      Adjusted to redox equilibrium
       Specific Conductance (uS/cm, 25 oC) = 7887
                          Density (g/cm3)  =   0.99736
                        Activity of water  =   0.999
                           Ionic strength  =  1.992e-002
                       Mass of water (kg)  =  1.000e+000
                 Total alkalinity (eq/kg)  = -1.992e-002
                    Total carbon (mol/kg)  =  0.000e+000
                       Total CO2 (mol/kg)  =  0.000e+000
                      Temperature (deg C)  =  25.00
                           Pressure (atm)  =  0.03
                  Electrical balance (eq)  =  2.233e-011
 Percent error, 100*(Cat-|An|)/(Cat+|An|)  =   0.00
                               Iterations  =  13
                                  Total H  = 1.110324e+002
                                  Total O  = 5.550622e+001

----------------------------Distribution of species----------------------------

                                               Log       Log       Log    mole V
   Species          Molality    Activity  Molality  Activity     Gamma   cm3/mol

   H+             1.992e-002  1.772e-002    -1.701    -1.752    -0.051      0.00
   OH-            6.518e-013  5.652e-013   -12.186   -12.248    -0.062     -3.95
   H2O            5.551e+001  9.993e-001     1.744    -0.000     0.000     18.07
Cl           1.992e-002
   Cl-            1.992e-002  1.728e-002    -1.701    -1.762    -0.062     18.17
H(0)         4.040e-039
   H2             2.020e-039  2.029e-039   -38.695   -38.693     0.002     28.61
O(0)         2.013e-015
   O2             1.006e-015  1.011e-015   -14.997   -14.995     0.002     30.40

------------------------------Saturation indices-------------------------------

	Phase               SI   log IAP   log K(298 K,   0 atm)

	H2(g)           -35.59    -38.69   -3.10  H2
	H2O(g)           -1.50     -0.00    1.50  H2O
	O2(g)           -12.10    -15.00   -2.89  O2


Reaction step 9.

Using solution 1.	
Using temperature 1.	
Using pressure 1.	
Using reaction 1.	

Reaction 1.	

	 2.032e-002 moles of the following reaction have been added:

	                 Relative
	Reactant            moles

	HCl                  1.00000

	                 Relative
	Element             moles
	Cl                   1.00000
	H                    1.00000

-----------------------------Solution composition------------------------------

	Elements           Molality       Moles

	Cl               2.032e-002  2.032e-002

----------------------------Description of solution----------------------------

                                       pH  =   1.743      Charge balance
                                       pe  =  15.945      Adjusted to redox equilibrium
       Specific Conductance (uS/cm, 25 oC) = 8042
                          Density (g/cm3)  =   0.99737
                        Activity of water  =   0.999
                           Ionic strength  =  2.032e-002
                       Mass of water (kg)  =  1.000e+000
                 Total alkalinity (eq/kg)  = -2.032e-002
                    Total carbon (mol/kg)  =  0.000e+000
                       Total CO2 (mol/kg)  =  0.000e+000
                      Temperature (deg C)  =  25.00
                           Pressure (atm)  =  0.03
                  Electrical balance (eq)  = -2.059e-018
 Percent error, 100*(Cat-|An|)/(Cat+|An|)  =  -0.00
                               Iterations  =  13
                                  Total H  = 1.110328e+002
                                  Total O  = 5.550622e+001

----------------------------Distribution of species----------------------------

                                               Log       Log       Log    mole V
   Species          Molality    Activity  Molality  Activity     Gamma   cm3/mol

   H+             2.032e-002  1.806e-002    -1.692    -1.743    -0.051      0.00
   OH-            6.403e-013  5.545e-013   -12.194   -12.256    -0.062     -3.95
   H2O            5.551e+001  9.993e-001     1.744    -0.000     0.000     18.07
Cl           2.032e-002
   Cl-            2.032e-002  1.761e-002    -1.692    -1.754    -0.062     18.17
H(0)         5.912e-039
   H2             2.956e-039  2.970e-039   -38.529   -38.527     0.002     28.61
O(0)         9.395e-016
   O2             4.698e-016  4.720e-016   -15.328   -15.326     0.002     30.40

------------------------------Saturation indices-------------------------------

	Phase               SI   log IAP   log K(298 K,   0 atm)

	H2(g)           -35.43    -38.53   -3.10  H2
	H2O(g)           -1.50     -0.00    1.50  H2O
	O2(g)           -12.43    -15.33   -2.89  O2


Reaction step 10.

Using solution 1.	
Using temperature 1.	
Using pressure 1.	
Using reaction 1.	

Reaction 1.	

	 2.072e-002 moles of the following reaction have been added:

	                 Relative
	Reactant            moles

	HCl                  1.00000

	                 Relative
	Element             moles
	Cl                   1.00000
	H                    1.00000

-----------------------------Solution composition------------------------------

	Elements           Molality       Moles

	Cl               2.072e-002  2.072e-002

----------------------------Description of solution----------------------------

                                       pH  =   1.735      Charge balance
                                       pe  =  16.048      Adjusted to redox equilibrium
       Specific Conductance (uS/cm, 25 oC) = 8197
                          Density (g/cm3)  =   0.99738
                        Activity of water  =   0.999
                           Ionic strength  =  2.072e-002
                       Mass of water (kg)  =  1.000e+000
                 Total alkalinity (eq/kg)  = -2.072e-002
                    Total carbon (mol/kg)  =  0.000e+000
                       Total CO2 (mol/kg)  =  0.000e+000
                      Temperature (deg C)  =  25.00
                           Pressure (atm)  =  0.03
                  Electrical balance (eq)  =  9.097e-019
 Percent error, 100*(Cat-|An|)/(Cat+|An|)  =   0.00
                               Iterations  =  14
                                  Total H  = 1.110332e+002
                                  Total O  = 5.550622e+001

----------------------------Distribution of species----------------------------

                                               Log       Log       Log    mole V
   Species          Molality    Activity  Molality  Activity     Gamma   cm3/mol

   H+             2.072e-002  1.841e-002    -1.684    -1.735    -0.052      0.00
   OH-            6.291e-013  5.441e-013   -12.201   -12.264    -0.063     -3.94
   H2O            5.551e+001  9.993e-001     1.744    -0.000     0.000     18.07
Cl           2.072e-002
   Cl-            2.072e-002  1.794e-002    -1.684    -1.746    -0.063     18.17
H(0)         3.835e-039
   H2             1.918e-039  1.927e-039   -38.717   -38.715     0.002     28.61
O(0)         2.232e-015
   O2             1.116e-015  1.121e-015   -14.952   -14.950     0.002     30.40

------------------------------Saturation indices-------------------------------

	Phase               SI   log IAP   log K(298 K,   0 atm)

	H2(g)           -35.61    -38.72   -3.10  H2
	H2O(g)           -1.50     -0.00    1.50  H2O
	O2(g)           -12.06    -14.95   -2.89  O2


Reaction step 11.

Using solution 1.	
Using temperature 1.	
Using pressure 1.	
Using reaction 1.	

Reaction 1.	

	 2.918e-002 moles of the following reaction have been added:

	                 Relative
	Reactant            moles

	HCl                  1.00000

	                 Relative
	Element             moles
	Cl                   1.00000
	H                    1.00000

-----------------------------Solution composition------------------------------

	Elements           Molality       Moles

	Cl               2.918e-002  2.918e-002

----------------------------Description of solution----------------------------

                                       pH  =   1.593      Charge balance
                                       pe  =  16.207      Adjusted to redox equilibrium
       Specific Conductance (uS/cm, 25 oC) = 11430
                          Density (g/cm3)  =   0.99753
                        Activity of water  =   0.999
                           Ionic strength  =  2.918e-002
                       Mass of water (kg)  =  1.000e+000
                 Total alkalinity (eq/kg)  = -2.918e-002
                    Total carbon (mol/kg)  =  0.000e+000
                       Total CO2 (mol/kg)  =  0.000e+000
                      Temperature (deg C)  =  25.00
                           Pressure (atm)  =  0.03
                  Electrical balance (eq)  =  1.570e-014
 Percent error, 100*(Cat-|An|)/(Cat+|An|)  =   0.00
                               Iterations  =  14
                                  Total H  = 1.110416e+002
                                  Total O  = 5.550622e+001

----------------------------Distribution of species----------------------------

                                               Log       Log       Log    mole V
   Species          Molality    Activity  Molality  Activity     Gamma   cm3/mol

   H+             2.918e-002  2.553e-002    -1.535    -1.593    -0.058      0.00
   OH-            4.637e-013  3.921e-013   -12.334   -12.407    -0.073     -3.90
   H2O            5.551e+001  9.990e-001     1.744    -0.000     0.000     18.07
Cl           2.918e-002
   Cl-            2.918e-002  2.470e-002    -1.535    -1.607    -0.072     18.19
H(0)         3.536e-039
   H2             1.768e-039  1.780e-039   -38.752   -38.750     0.003     28.61
O(0)         2.609e-015
   O2             1.304e-015  1.313e-015   -14.885   -14.882     0.003     30.40

------------------------------Saturation indices-------------------------------

	Phase               SI   log IAP   log K(298 K,   0 atm)

	H2(g)           -35.65    -38.75   -3.10  H2
	H2O(g)           -1.50     -0.00    1.50  H2O
	O2(g)           -11.99    -14.88   -2.89  O2


Reaction step 12.

Using solution 1.	
Using temperature 1.	
Using pressure 1.	
Using reaction 1.	

Reaction 1.	

	 3.001e-002 moles of the following reaction have been added:

	                 Relative
	Reactant            moles

	HCl                  1.00000

	                 Relative
	Element             moles
	Cl                   1.00000
	H                    1.00000

-----------------------------Solution composition------------------------------

	Elements           Molality       Moles

	Cl               3.001e-002  3.001e-002

----------------------------Description of solution----------------------------

                                       pH  =   1.581      Charge balance
                                       pe  =   3.970      Adjusted to redox equilibrium
       Specific Conductance (uS/cm, 25 oC) = 11747
                          Density (g/cm3)  =   0.99755
                        Activity of water  =   0.999
                           Ionic strength  =  3.001e-002
                       Mass of water (kg)  =  1.000e+000
                 Total alkalinity (eq/kg)  = -3.001e-002
                    Total carbon (mol/kg)  =  0.000e+000
                       Total CO2 (mol/kg)  =  0.000e+000
                      Temperature (deg C)  =  25.00
                           Pressure (atm)  =  0.03
                  Electrical balance (eq)  =  2.605e-014
 Percent error, 100*(Cat-|An|)/(Cat+|An|)  =   0.00
                               Iterations  =  11
                                  Total H  = 1.110424e+002
                                  Total O  = 5.550622e+001

----------------------------Distribution of species----------------------------

                                               Log       Log       Log    mole V
   Species          Molality    Activity  Molality  Activity     Gamma   cm3/mol

   H+             3.001e-002  2.623e-002    -1.523    -1.581    -0.058      0.00
   OH-            4.522e-013  3.817e-013   -12.345   -12.418    -0.074     -3.90
   H2O            5.551e+001  9.990e-001     1.744    -0.000     0.000     18.07
Cl           3.001e-002
   Cl-            3.001e-002  2.535e-002    -1.523    -1.596    -0.073     18.20
H(0)         1.110e-014
   H2             5.551e-015  5.590e-015   -14.256   -14.253     0.003     28.61
O(0)         0.000e+000
   O2             0.000e+000  0.000e+000   -63.879   -63.876     0.003     30.40

------------------------------Saturation indices-------------------------------

	Phase               SI   log IAP   log K(298 K,   0 atm)

	H2(g)           -11.15    -14.25   -3.10  H2
	H2O(g)           -1.50     -0.00    1.50  H2O
	O2(g)           -60.98    -63.88   -2.89  O2


Reaction step 13.

Using solution 1.	
Using temperature 1.	
Using pressure 1.	
Using reaction 1.	

Reaction 1.	

	 3.964e-002 moles of the following reaction have been added:

	                 Relative
	Reactant            moles

	HCl                  1.00000

	                 Relative
	Element             moles
	Cl                   1.00000
	H                    1.00000

-----------------------------Solution composition------------------------------

	Elements           Molality       Moles

	Cl               3.964e-002  3.964e-002

----------------------------Description of solution----------------------------

                                       pH  =   1.466      Charge balance
                                       pe  =   3.976      Adjusted to redox equilibrium
       Specific Conductance (uS/cm, 25 oC) = 15387
                          Density (g/cm3)  =   0.99772
                        Activity of water  =   0.999
                           Ionic strength  =  3.964e-002
                       Mass of water (kg)  =  1.000e+000
                 Total alkalinity (eq/kg)  = -3.964e-002
                    Total carbon (mol/kg)  =  0.000e+000
                       Total CO2 (mol/kg)  =  0.000e+000
                      Temperature (deg C)  =  25.00
                           Pressure (atm)  =  0.03
                  Electrical balance (eq)  = -7.044e-018
 Percent error, 100*(Cat-|An|)/(Cat+|An|)  =  -0.00
                               Iterations  =  12
                                  Total H  = 1.110521e+002
                                  Total O  = 5.550622e+001

----------------------------Distribution of species----------------------------

                                               Log       Log       Log    mole V
   Species          Molality    Activity  Molality  Activity     Gamma   cm3/mol

   H+             3.964e-002  3.421e-002    -1.402    -1.466    -0.064      0.00
   OH-            3.538e-013  2.925e-013   -12.451   -12.534    -0.083     -3.86
   H2O            5.551e+001  9.987e-001     1.744    -0.001     0.000     18.07
Cl           3.964e-002
   Cl-            3.964e-002  3.282e-002    -1.402    -1.484    -0.082     18.22
H(0)         1.836e-014
   H2             9.179e-015  9.263e-015   -14.037   -14.033     0.004     28.61
O(0)         0.000e+000
   O2             0.000e+000  0.000e+000   -64.319   -64.315     0.004     30.40

------------------------------Saturation indices-------------------------------

	Phase               SI   log IAP   log K(298 K,   0 atm)

	H2(g)           -10.93    -14.03   -3.10  H2
	H2O(g)           -1.50     -0.00    1.50  H2O
	O2(g)           -61.42    -64.31   -2.89  O2


Reaction step 14.

Using solution 1.	
Using temperature 1.	
Using pressure 1.	
Using reaction 1.	

Reaction 1.	

	 4.000e-002 moles of the following reaction have been added:

	                 Relative
	Reactant            moles

	HCl                  1.00000

	                 Relative
	Element             moles
	Cl                   1.00000
	H                    1.00000

-----------------------------Solution composition------------------------------

	Elements           Molality       Moles

	Cl               4.000e-002  4.000e-002

----------------------------Description of solution----------------------------

                                       pH  =   1.462      Charge balance
                                       pe  =   3.838      Adjusted to redox equilibrium
       Specific Conductance (uS/cm, 25 oC) = 15522
                          Density (g/cm3)  =   0.99773
                        Activity of water  =   0.999
                           Ionic strength  =  4.000e-002
                       Mass of water (kg)  =  1.000e+000
                 Total alkalinity (eq/kg)  = -4.000e-002
                    Total carbon (mol/kg)  =  0.000e+000
                       Total CO2 (mol/kg)  =  0.000e+000
                      Temperature (deg C)  =  25.00
                           Pressure (atm)  =  0.03
                  Electrical balance (eq)  =  9.313e-011
 Percent error, 100*(Cat-|An|)/(Cat+|An|)  =   0.00
                               Iterations  =  11
                                  Total H  = 1.110524e+002
                                  Total O  = 5.550622e+001

----------------------------Distribution of species----------------------------

                                               Log       Log       Log    mole V
   Species          Molality    Activity  Molality  Activity     Gamma   cm3/mol

   H+             4.000e-002  3.451e-002    -1.398    -1.462    -0.064      0.00
   OH-            3.510e-013  2.900e-013   -12.455   -12.538    -0.083     -3.86
   H2O            5.551e+001  9.986e-001     1.744    -0.001     0.000     18.07
Cl           4.000e-002
   Cl-            4.000e-002  3.309e-002    -1.398    -1.480    -0.082     18.22
H(0)         3.528e-014
   H2             1.764e-014  1.780e-014   -13.754   -13.750     0.004     28.61
O(0)         0.000e+000
   O2             0.000e+000  0.000e+000   -64.886   -64.882     0.004     30.40

------------------------------Saturation indices-------------------------------

	Phase               SI   log IAP   log K(298 K,   0 atm)

	H2(g)           -10.65    -13.75   -3.10  H2
	H2O(g)           -1.50     -0.00    1.50  H2O
	O2(g)           -61.99    -64.88   -2.89  O2


Reaction step 15.

Using solution 1.	
Using temperature 1.	
Using pressure 1.	
Using reaction 1.	

Reaction 1.	

	 5.050e-002 moles of the following reaction have been added:

	                 Relative
	Reactant            moles

	HCl                  1.00000

	                 Relative
	Element             moles
	Cl                   1.00000
	H                    1.00000

-----------------------------Solution composition------------------------------

	Elements           Molality       Moles

	Cl               5.050e-002  5.050e-002

----------------------------Description of solution----------------------------

                                       pH  =   1.366      Charge balance
                                       pe  =  16.169      Adjusted to redox equilibrium
       Specific Conductance (uS/cm, 25 oC) = 19453
                          Density (g/cm3)  =   0.99792
                        Activity of water  =   0.998
                           Ionic strength  =  5.050e-002
                       Mass of water (kg)  =  1.000e+000
                 Total alkalinity (eq/kg)  = -5.050e-002
                    Total carbon (mol/kg)  =  0.000e+000
                       Total CO2 (mol/kg)  =  0.000e+000
                      Temperature (deg C)  =  25.00
                           Pressure (atm)  =  0.03
                  Electrical balance (eq)  =  3.594e-011
 Percent error, 100*(Cat-|An|)/(Cat+|An|)  =   0.00
                               Iterations  =  14
                                  Total H  = 1.110629e+002
                                  Total O  = 5.550622e+001

----------------------------Distribution of species----------------------------

                                               Log       Log       Log    mole V
   Species          Molality    Activity  Molality  Activity     Gamma   cm3/mol

   H+             5.050e-002  4.309e-002    -1.297    -1.366    -0.069      0.00
   OH-            2.863e-013  2.322e-013   -12.543   -12.634    -0.091     -3.82
   H2O            5.551e+001  9.983e-001     1.744    -0.001     0.000     18.07
Cl           5.050e-002
   Cl-            5.050e-002  4.102e-002    -1.297    -1.387    -0.090     18.24
H(0)         1.193e-038
   H2             5.964e-039  6.034e-039   -38.224   -38.219     0.005     28.61
O(0)         2.256e-016
   O2             1.128e-016  1.141e-016   -15.948   -15.943     0.005     30.40

------------------------------Saturation indices-------------------------------

	Phase               SI   log IAP   log K(298 K,   0 atm)

	H2(g)           -35.12    -38.22   -3.10  H2
	H2O(g)           -1.50     -0.00    1.50  H2O
	O2(g)           -13.05    -15.94   -2.89  O2


Reaction step 16.

Using solution 1.	
Using temperature 1.	
Using pressure 1.	
Using reaction 1.	

Reaction 1.	

	 5.765e-002 moles of the following reaction have been added:

	                 Relative
	Reactant            moles

	HCl                  1.00000

	                 Relative
	Element             moles
	Cl                   1.00000
	H                    1.00000

-----------------------------Solution composition------------------------------

	Elements           Molality       Moles

	Cl               5.765e-002  5.765e-002

----------------------------Description of solution----------------------------

                                       pH  =   1.311      Charge balance
                                       pe  =  16.485      Adjusted to redox equilibrium
       Specific Conductance (uS/cm, 25 oC) = 22113
                          Density (g/cm3)  =   0.99805
                        Activity of water  =   0.998
                           Ionic strength  =  5.765e-002
                       Mass of water (kg)  =  1.000e+000
                 Total alkalinity (eq/kg)  = -5.765e-002
                    Total carbon (mol/kg)  =  0.000e+000
                       Total CO2 (mol/kg)  =  0.000e+000
                      Temperature (deg C)  =  25.00
                           Pressure (atm)  =  0.03
                  Electrical balance (eq)  =  1.488e-010
 Percent error, 100*(Cat-|An|)/(Cat+|An|)  =   0.00
                               Iterations  =  14
                                  Total H  = 1.110701e+002
                                  Total O  = 5.550622e+001

----------------------------Distribution of species----------------------------

                                               Log       Log       Log    mole V
   Species          Molality    Activity  Molality  Activity     Gamma   cm3/mol

   H+             5.765e-002  4.889e-002    -1.239    -1.311    -0.072      0.00
   OH-            2.552e-013  2.046e-013   -12.593   -12.689    -0.096     -3.79
   H2O            5.551e+001  9.980e-001     1.744    -0.001     0.000     18.07
Cl           5.765e-002
   Cl-            5.765e-002  4.631e-002    -1.239    -1.334    -0.095     18.26
H(0)         3.586e-039
   H2             1.793e-039  1.817e-039   -38.746   -38.741     0.006     28.61
O(0)         2.483e-015
   O2             1.241e-015  1.258e-015   -14.906   -14.900     0.006     30.40

------------------------------Saturation indices-------------------------------

	Phase               SI   log IAP   log K(298 K,   0 atm)

	H2(g)           -35.64    -38.74   -3.10  H2
	H2O(g)           -1.50     -0.00    1.50  H2O
	O2(g)           -12.01    -14.90   -2.89  O2


Reaction step 17.

Using solution 1.	
Using temperature 1.	
Using pressure 1.	
Using reaction 1.	

Reaction 1.	

	 6.184e-002 moles of the following reaction have been added:

	                 Relative
	Reactant            moles

	HCl                  1.00000

	                 Relative
	Element             moles
	Cl                   1.00000
	H                    1.00000

-----------------------------Solution composition------------------------------

	Elements           Molality       Moles

	Cl               6.184e-002  6.184e-002

----------------------------Description of solution----------------------------

                                       pH  =   1.282      Charge balance
                                       pe  =  16.519      Adjusted to redox equilibrium
       Specific Conductance (uS/cm, 25 oC) = 23665
                          Density (g/cm3)  =   0.99812
                        Activity of water  =   0.998
                           Ionic strength  =  6.184e-002
                       Mass of water (kg)  =  1.000e+000
                 Total alkalinity (eq/kg)  = -6.184e-002
                    Total carbon (mol/kg)  =  0.000e+000
                       Total CO2 (mol/kg)  =  0.000e+000
                      Temperature (deg C)  =  25.00
                           Pressure (atm)  =  0.03
                  Electrical balance (eq)  =  7.211e-011
 Percent error, 100*(Cat-|An|)/(Cat+|An|)  =   0.00
                               Iterations  =  14
                                  Total H  = 1.110743e+002
                                  Total O  = 5.550622e+001

----------------------------Distribution of species----------------------------

                                               Log       Log       Log    mole V
   Species          Molality    Activity  Molality  Activity     Gamma   cm3/mol

   H+             6.184e-002  5.226e-002    -1.209    -1.282    -0.073      0.00
   OH-            2.402e-013  1.914e-013   -12.619   -12.718    -0.099     -3.78
   H2O            5.551e+001  9.979e-001     1.744    -0.001     0.000     18.07
Cl           6.184e-002
   Cl-            6.184e-002  4.938e-002    -1.209    -1.306    -0.098     18.27
H(0)         3.494e-039
   H2             1.747e-039  1.772e-039   -38.758   -38.752     0.006     28.61
O(0)         2.607e-015
   O2             1.304e-015  1.322e-015   -14.885   -14.879     0.006     30.40

------------------------------Saturation indices-------------------------------

	Phase               SI   log IAP   log K(298 K,   0 atm)

	H2(g)           -35.65    -38.75   -3.10  H2
	H2O(g)           -1.50     -0.00    1.50  H2O
	O2(g)           -11.99    -14.88   -2.89  O2


Reaction step 18.

Using solution 1.	
Using temperature 1.	
Using pressure 1.	
Using reaction 1.	

Reaction 1.	

	 7.539e-002 moles of the following reaction have been added:

	                 Relative
	Reactant            moles

	HCl                  1.00000

	                 Relative
	Element             moles
	Cl                   1.00000
	H                    1.00000

-----------------------------Solution composition------------------------------

	Elements           Molality       Moles

	Cl               7.539e-002  7.539e-002

----------------------------Description of solution----------------------------

                                       pH  =   1.200      Charge balance
                                       pe  =  16.446      Adjusted to redox equilibrium
       Specific Conductance (uS/cm, 25 oC) = 28660
                          Density (g/cm3)  =   0.99837
                        Activity of water  =   0.997
                           Ionic strength  =  7.539e-002
                       Mass of water (kg)  =  1.000e+000
                 Total alkalinity (eq/kg)  = -7.539e-002
                    Total carbon (mol/kg)  =  0.000e+000
                       Total CO2 (mol/kg)  =  0.000e+000
                      Temperature (deg C)  =  25.00
                           Pressure (atm)  =  0.03
                  Electrical balance (eq)  =  2.802e-010
 Percent error, 100*(Cat-|An|)/(Cat+|An|)  =   0.00
                               Iterations  =  15
                                  Total H  = 1.110878e+002
                                  Total O  = 5.550622e+001

----------------------------Distribution of species----------------------------

                                               Log       Log       Log    mole V
   Species          Molality    Activity  Molality  Activity     Gamma   cm3/mol

   H+             7.539e-002  6.310e-002    -1.123    -1.200    -0.077      0.00
   OH-            2.024e-013  1.584e-013   -12.694   -12.800    -0.106     -3.73
   H2O            5.551e+001  9.974e-001     1.744    -0.001     0.000     18.07
Cl           7.539e-002
   Cl-            7.539e-002  5.916e-002    -1.123    -1.228    -0.105     18.29
H(0)         7.089e-039
   H2             3.544e-039  3.607e-039   -38.450   -38.443     0.008     28.61
O(0)         6.267e-016
   O2             3.134e-016  3.189e-016   -15.504   -15.496     0.008     30.40

------------------------------Saturation indices-------------------------------

	Phase               SI   log IAP   log K(298 K,   0 atm)

	H2(g)           -35.34    -38.44   -3.10  H2
	H2O(g)           -1.50     -0.00    1.50  H2O
	O2(g)           -12.60    -15.50   -2.89  O2


Reaction step 19.

Using solution 1.	
Using temperature 1.	
Using pressure 1.	
Using reaction 1.	

Reaction 1.	

	 7.969e-002 moles of the following reaction have been added:

	                 Relative
	Reactant            moles

	HCl                  1.00000

	                 Relative
	Element             moles
	Cl                   1.00000
	H                    1.00000

-----------------------------Solution composition------------------------------

	Elements           Molality       Moles

	Cl               7.969e-002  7.969e-002

----------------------------Description of solution----------------------------

                                       pH  =   1.177      Charge balance
                                       pe  =  16.393      Adjusted to redox equilibrium
       Specific Conductance (uS/cm, 25 oC) = 30238
                          Density (g/cm3)  =   0.99844
                        Activity of water  =   0.997
                           Ionic strength  =  7.969e-002
                       Mass of water (kg)  =  1.000e+000
                 Total alkalinity (eq/kg)  = -7.969e-002
                    Total carbon (mol/kg)  =  0.000e+000
                       Total CO2 (mol/kg)  =  0.000e+000
                      Temperature (deg C)  =  25.00
                           Pressure (atm)  =  0.03
                  Electrical balance (eq)  =  3.167e-010
 Percent error, 100*(Cat-|An|)/(Cat+|An|)  =   0.00
                               Iterations  =  15
                                  Total H  = 1.110921e+002
                                  Total O  = 5.550622e+001

----------------------------Distribution of species----------------------------

                                               Log       Log       Log    mole V
   Species          Molality    Activity  Molality  Activity     Gamma   cm3/mol

   H+             7.969e-002  6.652e-002    -1.099    -1.177    -0.078      0.00
   OH-            1.930e-013  1.503e-013   -12.714   -12.823    -0.109     -3.72
   H2O            5.551e+001  9.973e-001     1.744    -0.001     0.000     18.07
Cl           7.969e-002
   Cl-            7.969e-002  6.222e-002    -1.099    -1.206    -0.108     18.30
H(0)         1.006e-038
   H2             5.032e-039  5.125e-039   -38.298   -38.290     0.008     28.61
O(0)         3.099e-016
   O2             1.550e-016  1.578e-016   -15.810   -15.802     0.008     30.40

------------------------------Saturation indices-------------------------------

	Phase               SI   log IAP   log K(298 K,   0 atm)

	H2(g)           -35.19    -38.29   -3.10  H2
	H2O(g)           -1.50     -0.00    1.50  H2O
	O2(g)           -12.91    -15.80   -2.89  O2


Reaction step 20.

Using solution 1.	
Using temperature 1.	
Using pressure 1.	
Using reaction 1.	

Reaction 1.	

	 7.993e-002 moles of the following reaction have been added:

	                 Relative
	Reactant            moles

	HCl                  1.00000

	                 Relative
	Element             moles
	Cl                   1.00000
	H                    1.00000

-----------------------------Solution composition------------------------------

	Elements           Molality       Moles

	Cl               7.993e-002  7.993e-002

----------------------------Description of solution----------------------------

                                       pH  =   1.176      Charge balance
                                       pe  =   4.510      Adjusted to redox equilibrium
       Specific Conductance (uS/cm, 25 oC) = 30327
                          Density (g/cm3)  =   0.99845
                        Activity of water  =   0.997
                           Ionic strength  =  7.993e-002
                       Mass of water (kg)  =  1.000e+000
                 Total alkalinity (eq/kg)  = -7.993e-002
                    Total carbon (mol/kg)  =  0.000e+000
                       Total CO2 (mol/kg)  =  0.000e+000
                      Temperature (deg C)  =  25.00
                           Pressure (atm)  =  0.03
                  Electrical balance (eq)  =  1.118e-014
 Percent error, 100*(Cat-|An|)/(Cat+|An|)  =   0.00
                               Iterations  =  11
                                  Total H  = 1.110924e+002
                                  Total O  = 5.550622e+001

----------------------------Distribution of species----------------------------

                                               Log       Log       Log    mole V
   Species          Molality    Activity  Molality  Activity     Gamma   cm3/mol

   H+             7.993e-002  6.671e-002    -1.097    -1.176    -0.079      0.00
   OH-            1.925e-013  1.498e-013   -12.716   -12.824    -0.109     -3.72
   H2O            5.551e+001  9.973e-001     1.744    -0.001     0.000     18.07
Cl           7.993e-002
   Cl-            7.993e-002  6.239e-002    -1.097    -1.205    -0.108     18.30
H(0)         5.919e-015
   H2             2.959e-015  3.014e-015   -14.529   -14.521     0.008     28.61
O(0)         0.000e+000
   O2             0.000e+000  0.000e+000   -63.349   -63.341     0.008     30.40

------------------------------Saturation indices-------------------------------

	Phase               SI   log IAP   log K(298 K,   0 atm)

	H2(g)           -11.42    -14.52   -3.10  H2
	H2O(g)           -1.50     -0.00    1.50  H2O
	O2(g)           -60.45    -63.34   -2.89  O2


Reaction step 21.

Using solution 1.	
Using temperature 1.	
Using pressure 1.	
Using reaction 1.	

Reaction 1.	

	 9.071e-002 moles of the following reaction have been added:

	                 Relative
	Reactant            moles

	HCl                  1.00000

	                 Relative
	Element             moles
	Cl                   1.00000
	H                    1.00000

-----------------------------Solution composition------------------------------

	Elements           Molality       Moles

	Cl               9.071e-002  9.071e-002

----------------------------Description of solution----------------------------

                                       pH  =   1.124      Charge balance
                                       pe  =   4.605      Adjusted to redox equilibrium
       Specific Conductance (uS/cm, 25 oC) = 34269
                          Density (g/cm3)  =   0.99864
                        Activity of water  =   0.997
                           Ionic strength  =  9.071e-002
                       Mass of water (kg)  =  1.000e+000
                 Total alkalinity (eq/kg)  = -9.071e-002
                    Total carbon (mol/kg)  =  0.000e+000
                       Total CO2 (mol/kg)  =  0.000e+000
                      Temperature (deg C)  =  25.00
                           Pressure (atm)  =  0.03
                  Electrical balance (eq)  =  1.122e-016
 Percent error, 100*(Cat-|An|)/(Cat+|An|)  =   0.00
                               Iterations  =  12
                                  Total H  = 1.111031e+002
                                  Total O  = 5.550622e+001

----------------------------Distribution of species----------------------------

                                               Log       Log       Log    mole V
   Species          Molality    Activity  Molality  Activity     Gamma   cm3/mol

   H+             9.071e-002  7.523e-002    -1.042    -1.124    -0.081      0.00
   OH-            1.727e-013  1.328e-013   -12.763   -12.877    -0.114     -3.68
   H2O            5.551e+001  9.969e-001     1.744    -0.001     0.000     18.07
Cl           9.071e-002
   Cl-            9.071e-002  6.997e-002    -1.042    -1.155    -0.113     18.31
H(0)         4.830e-015
   H2             2.415e-015  2.466e-015   -14.617   -14.608     0.009     28.61
O(0)         0.000e+000
   O2             0.000e+000  0.000e+000   -63.176   -63.167     0.009     30.40

------------------------------Saturation indices-------------------------------

	Phase               SI   log IAP   log K(298 K,   0 atm)

	H2(g)           -11.51    -14.61   -3.10  H2
	H2O(g)           -1.50     -0.00    1.50  H2O
	O2(g)           -60.27    -63.17   -2.89  O2


Reaction step 22.

Using solution 1.	
Using temperature 1.	
Using pressure 1.	
Using reaction 1.	

Reaction 1.	

	 9.898e-002 moles of the following reaction have been added:

	                 Relative
	Reactant            moles

	HCl                  1.00000

	                 Relative
	Element             moles
	Cl                   1.00000
	H                    1.00000

-----------------------------Solution composition------------------------------

	Elements           Molality       Moles

	Cl               9.898e-002  9.898e-002

----------------------------Description of solution----------------------------

                                       pH  =   1.088      Charge balance
                                       pe  =  16.638      Adjusted to redox equilibrium
       Specific Conductance (uS/cm, 25 oC) = 37280
                          Density (g/cm3)  =   0.99879
                        Activity of water  =   0.997
                           Ionic strength  =  9.898e-002
                       Mass of water (kg)  =  1.000e+000
                 Total alkalinity (eq/kg)  = -9.898e-002
                    Total carbon (mol/kg)  =  0.000e+000
                       Total CO2 (mol/kg)  =  0.000e+000
                      Temperature (deg C)  =  25.00
                           Pressure (atm)  =  0.03
                  Electrical balance (eq)  =  5.481e-013
 Percent error, 100*(Cat-|An|)/(Cat+|An|)  =   0.00
                               Iterations  =  15
                                  Total H  = 1.111114e+002
                                  Total O  = 5.550622e+001

----------------------------Distribution of species----------------------------

                                               Log       Log       Log    mole V
   Species          Molality    Activity  Molality  Activity     Gamma   cm3/mol

   H+             9.898e-002  8.174e-002    -1.004    -1.088    -0.083      0.00
   OH-            1.603e-013  1.222e-013   -12.795   -12.913    -0.118     -3.66
   H2O            5.551e+001  9.966e-001     1.744    -0.001     0.000     18.07
Cl           9.898e-002
   Cl-            9.898e-002  7.572e-002    -1.004    -1.121    -0.116     18.33
H(0)         4.890e-039
   H2             2.445e-039  2.501e-039   -38.612   -38.602     0.010     28.61
O(0)         1.294e-015
   O2             6.469e-016  6.618e-016   -15.189   -15.179     0.010     30.40

------------------------------Saturation indices-------------------------------

	Phase               SI   log IAP   log K(298 K,   0 atm)

	H2(g)           -35.50    -38.60   -3.10  H2
	H2O(g)           -1.50     -0.00    1.50  H2O
	O2(g)           -12.29    -15.18   -2.89  O2


Reaction step 23.

Using solution 1.	
Using temperature 1.	
Using pressure 1.	
Using reaction 1.	

Reaction 1.	

	 1.001e-001 moles of the following reaction have been added:

	                 Relative
	Reactant            moles

	HCl                  1.00000

	                 Relative
	Element             moles
	Cl                   1.00000
	H                    1.00000

-----------------------------Solution composition------------------------------

	Elements           Molality       Moles

	Cl               1.001e-001  1.001e-001

----------------------------Description of solution----------------------------

                                       pH  =   1.083      Charge balance
                                       pe  =  16.633      Adjusted to redox equilibrium
       Specific Conductance (uS/cm, 25 oC) = 37687
                          Density (g/cm3)  =   0.99881
                        Activity of water  =   0.997
                           Ionic strength  =  1.001e-001
                       Mass of water (kg)  =  1.000e+000
                 Total alkalinity (eq/kg)  = -1.001e-001
                    Total carbon (mol/kg)  =  0.000e+000
                       Total CO2 (mol/kg)  =  0.000e+000
                      Temperature (deg C)  =  25.00
                           Pressure (atm)  =  0.03
                  Electrical balance (eq)  =  6.978e-013
 Percent error, 100*(Cat-|An|)/(Cat+|An|)  =   0.00
                               Iterations  =  15
                                  Total H  = 1.111125e+002
                                  Total O  = 5.550622e+001

----------------------------Distribution of species----------------------------

                                               Log       Log       Log    mole V
   Species          Molality    Activity  Molality  Activity     Gamma   cm3/mol

   H+             1.001e-001  8.261e-002    -1.000    -1.083    -0.083      0.00
   OH-            1.588e-013  1.209e-013   -12.799   -12.918    -0.118     -3.65
   H2O            5.551e+001  9.966e-001     1.744    -0.001     0.000     18.07
Cl           1.001e-001
   Cl-            1.001e-001  7.649e-002    -1.000    -1.116    -0.117     18.33
H(0)         5.124e-039
   H2             2.562e-039  2.622e-039   -38.591   -38.581     0.010     28.61
O(0)         1.177e-015
   O2             5.886e-016  6.023e-016   -15.230   -15.220     0.010     30.40

------------------------------Saturation indices-------------------------------

	Phase               SI   log IAP   log K(298 K,   0 atm)

	H2(g)           -35.48    -38.58   -3.10  H2
	H2O(g)           -1.50     -0.00    1.50  H2O
	O2(g)           -12.33    -15.22   -2.89  O2


Reaction step 24.

Using solution 1.	
Using temperature 1.	
Using pressure 1.	
Using reaction 1.	

Reaction 1.	

	 1.159e-001 moles of the following reaction have been added:

	                 Relative
	Reactant            moles

	HCl                  1.00000

	                 Relative
	Element             moles
	Cl                   1.00000
	H                    1.00000

-----------------------------Solution composition------------------------------

	Elements           Molality       Moles

	Cl               1.159e-001  1.159e-001

----------------------------Description of solution----------------------------

                                       pH  =   1.022      Charge balance
                                       pe  =  16.741      Adjusted to redox equilibrium
       Specific Conductance (uS/cm, 25 oC) = 43414
                          Density (g/cm3)  =   0.99909
                        Activity of water  =   0.996
                           Ionic strength  =  1.159e-001
                       Mass of water (kg)  =  1.000e+000
                 Total alkalinity (eq/kg)  = -1.159e-001
                    Total carbon (mol/kg)  =  0.000e+000
                       Total CO2 (mol/kg)  =  0.000e+000
                      Temperature (deg C)  =  25.00
                           Pressure (atm)  =  0.03
                  Electrical balance (eq)  =  5.210e-015
 Percent error, 100*(Cat-|An|)/(Cat+|An|)  =   0.00
                               Iterations  =  15
                                  Total H  = 1.111283e+002
                                  Total O  = 5.550622e+001

----------------------------Distribution of species----------------------------

                                               Log       Log       Log    mole V
   Species          Molality    Activity  Molality  Activity     Gamma   cm3/mol

   H+             1.159e-001  9.496e-002    -0.936    -1.022    -0.087      0.00
   OH-            1.401e-013  1.051e-013   -12.854   -12.978    -0.125     -3.60
   H2O            5.551e+001  9.961e-001     1.744    -0.002     0.000     18.07
Cl           1.159e-001
   Cl-            1.159e-001  8.730e-002    -0.936    -1.059    -0.123     18.35
H(0)         4.094e-039
   H2             2.047e-039  2.102e-039   -38.689   -38.677     0.012     28.61
O(0)         1.823e-015
   O2             9.113e-016  9.360e-016   -15.040   -15.029     0.012     30.40

------------------------------Saturation indices-------------------------------

	Phase               SI   log IAP   log K(298 K,   0 atm)

	H2(g)           -35.58    -38.68   -3.10  H2
	H2O(g)           -1.50     -0.00    1.50  H2O
	O2(g)           -12.14    -15.03   -2.89  O2


Reaction step 25.

Using solution 1.	
Using temperature 1.	
Using pressure 1.	
Using reaction 1.	

Reaction 1.	

	 1.240e-001 moles of the following reaction have been added:

	                 Relative
	Reactant            moles

	HCl                  1.00000

	                 Relative
	Element             moles
	Cl                   1.00000
	H                    1.00000

-----------------------------Solution composition------------------------------

	Elements           Molality       Moles

	Cl               1.240e-001  1.240e-001

----------------------------Description of solution----------------------------

                                       pH  =   0.995      Charge balance
                                       pe  =  16.798      Adjusted to redox equilibrium
       Specific Conductance (uS/cm, 25 oC) = 46338
                          Density (g/cm3)  =   0.99924
                        Activity of water  =   0.996
                           Ionic strength  =  1.240e-001
                       Mass of water (kg)  =  1.000e+000
                 Total alkalinity (eq/kg)  = -1.240e-001
                    Total carbon (mol/kg)  =  0.000e+000
                       Total CO2 (mol/kg)  =  0.000e+000
                      Temperature (deg C)  =  25.00
                           Pressure (atm)  =  0.03
                  Electrical balance (eq)  =  2.376e-016
 Percent error, 100*(Cat-|An|)/(Cat+|An|)  =   0.00
                               Iterations  =  15
                                  Total H  = 1.111364e+002
                                  Total O  = 5.550622e+001

----------------------------Distribution of species----------------------------

                                               Log       Log       Log    mole V
   Species          Molality    Activity  Molality  Activity     Gamma   cm3/mol

   H+             1.240e-001  1.013e-001    -0.907    -0.995    -0.088      0.00
   OH-            1.323e-013  9.856e-014   -12.878   -13.006    -0.128     -3.58
   H2O            5.551e+001  9.958e-001     1.744    -0.002     0.000     18.07
Cl           1.240e-001
   Cl-            1.240e-001  9.278e-002    -0.907    -1.033    -0.126     18.36
H(0)         3.571e-039
   H2             1.786e-039  1.837e-039   -38.748   -38.736     0.012     28.61
O(0)         2.380e-015
   O2             1.190e-015  1.224e-015   -14.924   -14.912     0.012     30.40

------------------------------Saturation indices-------------------------------

	Phase               SI   log IAP   log K(298 K,   0 atm)

	H2(g)           -35.63    -38.74   -3.10  H2
	H2O(g)           -1.50     -0.00    1.50  H2O
	O2(g)           -12.02    -14.91   -2.89  O2


Reaction step 26.

Using solution 1.	
Using temperature 1.	
Using pressure 1.	
Using reaction 1.	

Reaction 1.	

	 1.257e-001 moles of the following reaction have been added:

	                 Relative
	Reactant            moles

	HCl                  1.00000

	                 Relative
	Element             moles
	Cl                   1.00000
	H                    1.00000

-----------------------------Solution composition------------------------------

	Elements           Molality       Moles

	Cl               1.256e-001  1.257e-001

----------------------------Description of solution----------------------------

                                       pH  =   0.989      Charge balance
                                       pe  =  16.843      Adjusted to redox equilibrium
       Specific Conductance (uS/cm, 25 oC) = 46933
                          Density (g/cm3)  =   0.99927
                        Activity of water  =   0.996
                           Ionic strength  =  1.256e-001
                       Mass of water (kg)  =  1.000e+000
                 Total alkalinity (eq/kg)  = -1.256e-001
                    Total carbon (mol/kg)  =  0.000e+000
                       Total CO2 (mol/kg)  =  0.000e+000
                      Temperature (deg C)  =  25.00
                           Pressure (atm)  =  0.03
                  Electrical balance (eq)  =  2.257e-013
 Percent error, 100*(Cat-|An|)/(Cat+|An|)  =   0.00
                               Iterations  =  14
                                  Total H  = 1.111381e+002
                                  Total O  = 5.550622e+001

----------------------------Distribution of species----------------------------

                                               Log       Log       Log    mole V
   Species          Molality    Activity  Molality  Activity     Gamma   cm3/mol

   H+             1.256e-001  1.025e-001    -0.901    -0.989    -0.088      0.00
   OH-            1.308e-013  9.732e-014   -12.883   -13.012    -0.128     -3.58
   H2O            5.551e+001  9.957e-001     1.744    -0.002     0.000     18.07
Cl           1.256e-001
   Cl-            1.256e-001  9.389e-002    -0.901    -1.027    -0.127     18.36
H(0)         2.976e-039
   H2             1.488e-039  1.532e-039   -38.827   -38.815     0.013     28.61
O(0)         3.423e-015
   O2             1.711e-015  1.762e-015   -14.767   -14.754     0.013     30.40

------------------------------Saturation indices-------------------------------

	Phase               SI   log IAP   log K(298 K,   0 atm)

	H2(g)           -35.71    -38.81   -3.10  H2
	H2O(g)           -1.50     -0.00    1.50  H2O
	O2(g)           -11.86    -14.75   -2.89  O2


Reaction step 27.

Using solution 1.	
Using temperature 1.	
Using pressure 1.	
Using reaction 1.	

Reaction 1.	

	 1.382e-001 moles of the following reaction have been added:

	                 Relative
	Reactant            moles

	HCl                  1.00000

	                 Relative
	Element             moles
	Cl                   1.00000
	H                    1.00000

-----------------------------Solution composition------------------------------

	Elements           Molality       Moles

	Cl               1.382e-001  1.382e-001

----------------------------Description of solution----------------------------

                                       pH  =   0.950      Charge balance
                                       pe  =  16.766      Adjusted to redox equilibrium
       Specific Conductance (uS/cm, 25 oC) = 51449
                          Density (g/cm3)  =   0.99949
                        Activity of water  =   0.995
                           Ionic strength  =  1.382e-001
                       Mass of water (kg)  =  1.000e+000
                 Total alkalinity (eq/kg)  = -1.382e-001
                    Total carbon (mol/kg)  =  0.000e+000
                       Total CO2 (mol/kg)  =  0.000e+000
                      Temperature (deg C)  =  25.00
                           Pressure (atm)  =  0.03
                  Electrical balance (eq)  =  1.684e-015
 Percent error, 100*(Cat-|An|)/(Cat+|An|)  =   0.00
                               Iterations  =  15
                                  Total H  = 1.111506e+002
                                  Total O  = 5.550622e+001

----------------------------Distribution of species----------------------------

                                               Log       Log       Log    mole V
   Species          Molality    Activity  Molality  Activity     Gamma   cm3/mol

   H+             1.382e-001  1.122e-001    -0.859    -0.950    -0.090      0.00
   OH-            1.207e-013  8.887e-014   -12.918   -13.051    -0.133     -3.54
   H2O            5.551e+001  9.953e-001     1.744    -0.002     0.000     18.07
Cl           1.382e-001
   Cl-            1.382e-001  1.023e-001    -0.859    -0.990    -0.131     18.38
H(0)         5.081e-039
   H2             2.540e-039  2.622e-039   -38.595   -38.581     0.014     28.61
O(0)         1.163e-015
   O2             5.817e-016  6.005e-016   -15.235   -15.221     0.014     30.40

------------------------------Saturation indices-------------------------------

	Phase               SI   log IAP   log K(298 K,   0 atm)

	H2(g)           -35.48    -38.58   -3.10  H2
	H2O(g)           -1.50     -0.00    1.50  H2O
	O2(g)           -12.33    -15.22   -2.89  O2


Reaction step 28.

Using solution 1.	
Using temperature 1.	
Using pressure 1.	
Using reaction 1.	

Reaction 1.	

	 1.484e-001 moles of the following reaction have been added:

	                 Relative
	Reactant            moles

[...]

----------------------------Description of solution----------------------------

                                       pH  =   7.153      Charge balance
                                       pe  =  12.970      Adjusted to redox equilibrium
       Specific Conductance (uS/cm, 25 oC) = 504426
                          Density (g/cm3)  =   1.34268
                        Activity of water  =   0.686
                           Ionic strength  =  9.224e+000
                       Mass of water (kg)  =  1.000e+000
                 Total alkalinity (eq/kg)  =  1.157e-007
                    Total carbon (mol/kg)  =  0.000e+000
                       Total CO2 (mol/kg)  =  0.000e+000
                      Temperature (deg C)  =  25.00
                  Electrical balance (eq)  =  1.046e-013
 Percent error, 100*(Cat-|An|)/(Cat+|An|)  =   0.00
                               Iterations  =  14
                                  Total H  = 1.110124e+002
                                  Total O  = 8.317822e+001

----------------------------Distribution of species----------------------------

                                               Log       Log       Log    mole V
   Species          Molality    Activity  Molality  Activity     Gamma   cm3/mol

   OH-            2.163e-007  9.778e-008    -6.665    -7.010    -0.345     13.64
   H+             1.006e-007  7.035e-008    -6.997    -7.153    -0.155      0.00
   H2O            5.551e+001  6.864e-001     1.744    -0.163     0.000     18.07
H(0)         0.000e+000
   H2             0.000e+000  0.000e+000   -44.317   -43.395     0.922     28.61
N(-3)        0.000e+000
   NH4+           0.000e+000  0.000e+000   -54.697   -55.141    -0.443     19.80
   NH3            0.000e+000  0.000e+000   -58.154   -57.232     0.922     24.31
N(0)         1.157e-007
   N2             5.787e-008  4.840e-007    -7.238    -6.315     0.922     29.29
N(3)         2.841e-011
   NO2-           2.841e-011  1.163e-011   -10.547   -10.934    -0.388     27.80
N(5)         9.224e+000
   NO3-           9.224e+000  3.776e+000     0.965     0.577    -0.388     32.54
Na           9.224e+000
   Na+            9.224e+000  2.220e+001     0.965     1.346     0.381      2.77
   NaOH           2.595e-017  2.171e-016   -16.586   -15.663     0.922     (0)  
O(0)         2.894e-007
   O2             1.447e-007  1.210e-006    -6.840    -5.917     0.922     30.40

------------------------------Saturation indices-------------------------------

	Phase               SI   log IAP   log K(298 K,   1 atm)

	H2(g)           -40.29    -43.39   -3.10  H2
	H2O(g)           -1.67     -0.16    1.50  H2O
	N2(g)            -3.14     -6.32   -3.18  N2
	NH3(g)          -59.03    -57.23    1.80  NH3
	O2(g)            -3.02     -5.92   -2.89  O2


Reaction step 77.

Using solution 1.	
Using temperature 1.	
Using pressure 1.	
Using reaction 1.	

Reaction 1.	

	 9.260e+000 moles of the following reaction have been added:

	                 Relative
	Reactant            moles

	NaNO3                1.00000

	                 Relative
	Element             moles
	N                    1.00000
	Na                   1.00000
	O                    3.00000

-----------------------------Solution composition------------------------------

	Elements           Molality       Moles

	N                9.260e+000  9.260e+000
	Na               9.260e+000  9.260e+000

----------------------------Description of solution----------------------------

                                       pH  =   7.152      Charge balance
                                       pe  =  12.971      Adjusted to redox equilibrium
       Specific Conductance (uS/cm, 25 oC) = 506096
                          Density (g/cm3)  =   1.34351
                        Activity of water  =   0.685
                           Ionic strength  =  9.260e+000
                       Mass of water (kg)  =  1.000e+000
                 Total alkalinity (eq/kg)  =  1.151e-007
                    Total carbon (mol/kg)  =  0.000e+000
                       Total CO2 (mol/kg)  =  0.000e+000
                      Temperature (deg C)  =  25.00
                  Electrical balance (eq)  = -2.261e-013
 Percent error, 100*(Cat-|An|)/(Cat+|An|)  =  -0.00
                               Iterations  =  14
                                  Total H  = 1.110124e+002
                                  Total O  = 8.328559e+001

----------------------------Distribution of species----------------------------

                                               Log       Log       Log    mole V
   Species          Molality    Activity  Molality  Activity     Gamma   cm3/mol

   OH-            2.158e-007  9.752e-008    -6.666    -7.011    -0.345     13.71
   H+             1.007e-007  7.042e-008    -6.997    -7.152    -0.155      0.00
   H2O            5.551e+001  6.852e-001     1.744    -0.164     0.000     18.07
H(0)         0.000e+000
   H2             0.000e+000  0.000e+000   -44.322   -43.396     0.926     28.61
N(-3)        0.000e+000
   NH4+           0.000e+000  0.000e+000   -54.698   -55.142    -0.444     19.80
   NH3            0.000e+000  0.000e+000   -58.160   -57.234     0.926     24.31
N(0)         1.151e-007
   N2             5.757e-008  4.855e-007    -7.240    -6.314     0.926     29.29
N(3)         2.848e-011
   NO2-           2.848e-011  1.165e-011   -10.545   -10.934    -0.388     27.81
N(5)         9.260e+000
   NO3-           9.260e+000  3.789e+000     0.967     0.578    -0.388     32.55
Na           9.260e+000
   Na+            9.260e+000  2.242e+001     0.967     1.351     0.384      2.78
   NaOH           2.592e-017  2.186e-016   -16.586   -15.660     0.926     (0)  
O(0)         2.879e-007
   O2             1.439e-007  1.214e-006    -6.842    -5.916     0.926     30.40

------------------------------Saturation indices-------------------------------

	Phase               SI   log IAP   log K(298 K,   1 atm)

	H2(g)           -40.30    -43.40   -3.10  H2
	H2O(g)           -1.67     -0.16    1.50  H2O
	N2(g)            -3.14     -6.31   -3.18  N2
	NH3(g)          -59.03    -57.23    1.80  NH3
	O2(g)            -3.02     -5.92   -2.89  O2


Reaction step 78.

Using solution 1.	
Using temperature 1.	
Using pressure 1.	
Using reaction 1.	

Reaction 1.	

	 9.970e+000 moles of the following reaction have been added:

	                 Relative
	Reactant            moles

	NaNO3                1.00000

	                 Relative
	Element             moles
	N                    1.00000
	Na                   1.00000
	O                    3.00000

-----------------------------Solution composition------------------------------

	Elements           Molality       Moles

	N                9.970e+000  9.970e+000
	Na               9.970e+000  9.970e+000

----------------------------Description of solution----------------------------

                                       pH  =   7.145      Charge balance
                                       pe  =  12.992      Adjusted to redox equilibrium
       Specific Conductance (uS/cm, 25 oC) = 539255
                          Density (g/cm3)  =   1.35931
                        Activity of water  =   0.661
                           Ionic strength  =  9.970e+000
                       Mass of water (kg)  =  1.000e+000
                 Total alkalinity (eq/kg)  =  1.035e-007
                    Total carbon (mol/kg)  =  0.000e+000
                       Total CO2 (mol/kg)  =  0.000e+000
                      Temperature (deg C)  =  25.00
                  Electrical balance (eq)  =  1.692e-013
 Percent error, 100*(Cat-|An|)/(Cat+|An|)  =   0.00
                               Iterations  =  14
                                  Total H  = 1.110124e+002
                                  Total O  = 8.541520e+001

----------------------------Distribution of species----------------------------

                                               Log       Log       Log    mole V
   Species          Molality    Activity  Molality  Activity     Gamma   cm3/mol

   OH-            2.061e-007  9.251e-008    -6.686    -7.034    -0.348     14.96
   H+             1.025e-007  7.161e-008    -6.989    -7.145    -0.156      0.00
   H2O            5.551e+001  6.610e-001     1.744    -0.180     0.000     18.07
H(0)         0.000e+000
   H2             0.000e+000  0.000e+000   -44.421   -43.424     0.997     28.61
N(-3)        0.000e+000
   NH4+           0.000e+000  0.000e+000   -54.716   -55.164    -0.448     19.90
   NH3            0.000e+000  0.000e+000   -58.260   -57.263     0.997     24.31
N(0)         1.035e-007
   N2             5.177e-008  5.141e-007    -7.286    -6.289     0.997     29.29
N(3)         2.980e-011
   NO2-           2.980e-011  1.209e-011   -10.526   -10.918    -0.392     27.92
N(5)         9.970e+000
   NO3-           9.970e+000  4.046e+000     0.999     0.607    -0.392     32.68
Na           9.970e+000
   Na+            9.970e+000  2.714e+001     0.999     1.434     0.435      3.04
   NaOH           2.529e-017  2.511e-016   -16.597   -15.600     0.997     (0)  
O(0)         2.589e-007
   O2             1.295e-007  1.285e-006    -6.888    -5.891     0.997     30.40

------------------------------Saturation indices-------------------------------

	Phase               SI   log IAP   log K(298 K,   1 atm)

	H2(g)           -40.32    -43.42   -3.10  H2
	H2O(g)           -1.68     -0.18    1.50  H2O
	N2(g)            -3.11     -6.29   -3.18  N2
	NH3(g)          -59.06    -57.26    1.80  NH3
	O2(g)            -3.00     -5.89   -2.89  O2


Reaction step 79.

Using solution 1.	
Using temperature 1.	
Using pressure 1.	
Using reaction 1.	

Reaction 1.	

	 1.063e+001 moles of the following reaction have been added:

	                 Relative
	Reactant            moles

	NaNO3                1.00000

	                 Relative
	Element             moles
	N                    1.00000
	Na                   1.00000
	O                    3.00000

-----------------------------Solution composition------------------------------

	Elements           Molality       Moles

	N                1.063e+001  1.063e+001
	Na               1.063e+001  1.063e+001

----------------------------Description of solution----------------------------

                                       pH  =   7.139      Charge balance
                                       pe  =  13.011      Adjusted to redox equilibrium
       Specific Conductance (uS/cm, 25 oC) = 570086
                          Density (g/cm3)  =   1.37293
                        Activity of water  =   0.639
                           Ionic strength  =  1.063e+001
                       Mass of water (kg)  =  1.000e+000
                 Total alkalinity (eq/kg)  =  9.354e-008
                    Total carbon (mol/kg)  =  0.000e+000
                       Total CO2 (mol/kg)  =  0.000e+000
                      Temperature (deg C)  =  25.00
                  Electrical balance (eq)  =  7.387e-008
 Percent error, 100*(Cat-|An|)/(Cat+|An|)  =   0.00
                               Iterations  =  13
                                  Total H  = 1.110124e+002
                                  Total O  = 8.739064e+001

----------------------------Distribution of species----------------------------

                                               Log       Log       Log    mole V
   Species          Molality    Activity  Molality  Activity     Gamma   cm3/mol

   OH-            1.975e-007  8.820e-008    -6.704    -7.055    -0.350     16.12
   H+             1.040e-007  7.257e-008    -6.983    -7.139    -0.156      0.00
   H2O            5.551e+001  6.386e-001     1.744    -0.195     0.000     18.07
H(0)         0.000e+000
   H2             0.000e+000  0.000e+000   -44.513   -43.450     1.063     28.61
N(-3)        0.000e+000
   NH4+           0.000e+000  0.000e+000   -54.734   -55.186    -0.452     19.99
   NH3            0.000e+000  0.000e+000   -58.354   -57.291     1.063     24.31
N(0)         9.354e-008
   N2             4.677e-008  5.405e-007    -7.330    -6.267     1.063     29.29
N(3)         3.098e-011
   NO2-           3.098e-011  1.248e-011   -10.509   -10.904    -0.395     28.01
N(5)         1.063e+001
   NO3-           1.063e+001  4.283e+000     1.026     0.632    -0.395     32.79
Na           1.063e+001
   Na+            1.063e+001  3.228e+001     1.026     1.509     0.482      3.28
   NaOH           2.463e-017  2.847e-016   -16.608   -15.546     1.063     (0)  
O(0)         2.339e-007
   O2             1.169e-007  1.351e-006    -6.932    -5.869     1.063     30.40

------------------------------Saturation indices-------------------------------

	Phase               SI   log IAP   log K(298 K,   1 atm)

	H2(g)           -40.35    -43.45   -3.10  H2
	H2O(g)           -1.70     -0.19    1.50  H2O
	N2(g)            -3.09     -6.27   -3.18  N2
	NH3(g)          -59.09    -57.29    1.80  NH3
	O2(g)            -2.98     -5.87   -2.89  O2


Reaction step 80.

Using solution 1.	
Using temperature 1.	
Using pressure 1.	
Using reaction 1.	

Reaction 1.	

	 1.076e+001 moles of the following reaction have been added:

	                 Relative
	Reactant            moles

	NaNO3                1.00000

	                 Relative
	Element             moles
	N                    1.00000
	Na                   1.00000
	O                    3.00000

-----------------------------Solution composition------------------------------

	Elements           Molality       Moles

	N                1.076e+001  1.076e+001
	Na               1.076e+001  1.076e+001

----------------------------Description of solution----------------------------

                                       pH  =   7.138      Charge balance
                                       pe  =  13.014      Adjusted to redox equilibrium
       Specific Conductance (uS/cm, 25 oC) = 576051
                          Density (g/cm3)  =   1.37545
                        Activity of water  =   0.634
                           Ionic strength  =  1.076e+001
                       Mass of water (kg)  =  1.000e+000
                 Total alkalinity (eq/kg)  =  9.169e-008
                    Total carbon (mol/kg)  =  0.000e+000
                       Total CO2 (mol/kg)  =  0.000e+000
                      Temperature (deg C)  =  25.00
                  Electrical balance (eq)  =  4.276e-008
 Percent error, 100*(Cat-|An|)/(Cat+|An|)  =   0.00
                               Iterations  =  13
                                  Total H  = 1.110124e+002
                                  Total O  = 8.777224e+001

----------------------------Distribution of species----------------------------

                                               Log       Log       Log    mole V
   Species          Molality    Activity  Molality  Activity     Gamma   cm3/mol

   OH-            1.960e-007  8.740e-008    -6.708    -7.058    -0.351     16.34
   H+             1.043e-007  7.273e-008    -6.982    -7.138    -0.156      0.00
   H2O            5.551e+001  6.343e-001     1.744    -0.198     0.000     18.07
H(0)         0.000e+000
   H2             0.000e+000  0.000e+000   -44.531   -43.455     1.076     28.61
N(-3)        0.000e+000
   NH4+           0.000e+000  0.000e+000   -54.738   -55.191    -0.453     20.01
   NH3            0.000e+000  0.000e+000   -58.372   -57.296     1.076     24.31
N(0)         9.169e-008
   N2             4.585e-008  5.455e-007    -7.339    -6.263     1.076     29.29
N(3)         3.120e-011
   NO2-           3.120e-011  1.256e-011   -10.506   -10.901    -0.395     28.03
N(5)         1.076e+001
   NO3-           1.076e+001  4.329e+000     1.032     0.636    -0.395     32.81
Na           1.076e+001
   Na+            1.076e+001  3.336e+001     1.032     1.523     0.492      3.33
   NaOH           2.450e-017  2.916e-016   -16.611   -15.535     1.076     (0)  
O(0)         2.293e-007
   O2             1.146e-007  1.364e-006    -6.941    -5.865     1.076     30.40

------------------------------Saturation indices-------------------------------

	Phase               SI   log IAP   log K(298 K,   1 atm)

	H2(g)           -40.35    -43.46   -3.10  H2
	H2O(g)           -1.70     -0.20    1.50  H2O
	N2(g)            -3.09     -6.26   -3.18  N2
	NH3(g)          -59.09    -57.30    1.80  NH3
	O2(g)            -2.97     -5.87   -2.89  O2


Reaction step 81.

Using solution 1.	
Using temperature 1.	
Using pressure 1.	
Using reaction 1.	

Reaction 1.	

	 1.127e+001 moles of the following reaction have been added:

	                 Relative
	Reactant            moles

	NaNO3                1.00000

	                 Relative
	Element             moles
	N                    1.00000
	Na                   1.00000
	O                    3.00000

-----------------------------Solution composition------------------------------

	Elements           Molality       Moles

	N                1.127e+001  1.127e+001
	Na               1.127e+001  1.127e+001

----------------------------Description of solution----------------------------

                                       pH  =   7.135      Charge balance
                                       pe  =  13.028      Adjusted to redox equilibrium
       Specific Conductance (uS/cm, 25 oC) = 600103
                          Density (g/cm3)  =   1.38525
                        Activity of water  =   0.617
                           Ionic strength  =  1.127e+001
                       Mass of water (kg)  =  1.000e+000
                 Total alkalinity (eq/kg)  =  8.452e-008
                    Total carbon (mol/kg)  =  0.000e+000
                       Total CO2 (mol/kg)  =  0.000e+000
                      Temperature (deg C)  =  25.00
                  Electrical balance (eq)  =  3.755e-009
 Percent error, 100*(Cat-|An|)/(Cat+|An|)  =   0.00
                               Iterations  =  13
                                  Total H  = 1.110124e+002
                                  Total O  = 8.930905e+001

----------------------------Distribution of species----------------------------

                                               Log       Log       Log    mole V
   Species          Molality    Activity  Molality  Activity     Gamma   cm3/mol

   OH-            1.897e-007  8.430e-008    -6.722    -7.074    -0.352     17.24
   H+             1.052e-007  7.334e-008    -6.978    -7.135    -0.157      0.00
   H2O            5.551e+001  6.169e-001     1.744    -0.210     0.000     18.07
H(0)         0.000e+000
   H2             0.000e+000  0.000e+000   -44.602   -43.475     1.127     28.61
N(-3)        0.000e+000
   NH4+           0.000e+000  0.000e+000   -54.753   -55.209    -0.456     20.08
   NH3            0.000e+000  0.000e+000   -58.445   -57.319     1.127     24.31
N(0)         8.452e-008
   N2             4.226e-008  5.658e-007    -7.374    -6.247     1.127     29.29
N(3)         3.210e-011
   NO2-           3.210e-011  1.286e-011   -10.494   -10.891    -0.397     28.10
N(5)         1.127e+001
   NO3-           1.127e+001  4.513e+000     1.052     0.654    -0.397     32.90
Na           1.127e+001
   Na+            1.127e+001  3.806e+001     1.052     1.580     0.529      3.51
   NaOH           2.396e-017  3.209e-016   -16.620   -15.494     1.127     (0)  
O(0)         2.113e-007
   O2             1.057e-007  1.415e-006    -6.976    -5.849     1.127     30.40

------------------------------Saturation indices-------------------------------

	Phase               SI   log IAP   log K(298 K,   1 atm)

	H2(g)           -40.37    -43.48   -3.10  H2
	H2O(g)           -1.71     -0.21    1.50  H2O
	N2(g)            -3.07     -6.25   -3.18  N2
	NH3(g)          -59.11    -57.32    1.80  NH3
	O2(g)            -2.96     -5.85   -2.89  O2


------------------
End of simulation.
------------------

-------------------------------------
Reading input data for simulation 11.
-------------------------------------

-------------------------------
End of Run after 12.82 Seconds.
-------------------------------

