   Input file: Vm_salt_65
  Output file: Vm_salt_65.out
Database file: ../database/phreeqc.dat

------------------
Reading data base.
------------------

	SOLUTION_MASTER_SPECIES
	SOLUTION_SPECIES
	PHASES
	EXCHANGE_MASTER_SPECIES
	EXCHANGE_SPECIES
	SURFACE_MASTER_SPECIES
	SURFACE_SPECIES
	RATES
	END
------------------------------------
Reading input data for simulation 1.
------------------------------------

	DATABASE ../database/phreeqc.dat
	SOLUTION 1
	 pH 7 charge
	END
-------------------------------------------
Beginning of initial solution calculations.
-------------------------------------------

Initial solution 1.	

-----------------------------Solution composition------------------------------

	Elements           Molality       Moles

	Pure water     

----------------------------Description of solution----------------------------

                                       pH  =   7.000      Charge balance
                                       pe  =   4.000    
       Specific Conductance (uS/cm, 25 oC) = 0
                          Density (g/cm3)  =   0.99704
                        Activity of water  =   1.000
                           Ionic strength  =   1.001e-07
                       Mass of water (kg)  =   1.000e+00
                 Total alkalinity (eq/kg)  =   6.310e-18
                    Total carbon (mol/kg)  =   0.000e+00
                       Total CO2 (mol/kg)  =   0.000e+00
                      Temperature (deg C)  =  25.00
                  Electrical balance (eq)  =  -6.310e-18
 Percent error, 100*(Cat-|An|)/(Cat+|An|)  =  -0.00
                               Iterations  =   2
                                  Total H  = 1.110124e+02
                                  Total O  = 5.550622e+01

----------------------------Distribution of species----------------------------

                                               Log       Log       Log    mole V
   Species          Molality    Activity  Molality  Activity     Gamma   cm3/mol

   OH-             1.001e-07   1.001e-07    -6.999    -7.000    -0.000     -4.11
   H+              1.001e-07   1.001e-07    -6.999    -7.000    -0.000      0.00
   H2O             5.551e+01   1.000e+00     1.744    -0.000     0.000     18.07
H(0)          1.419e-25
   H2              7.095e-26   7.095e-26   -25.149   -25.149     0.000     28.61
O(0)          0.000e+00
   O2              0.000e+00   0.000e+00   -42.082   -42.082     0.000     30.40

------------------------------Saturation indices-------------------------------

	Phase               SI   log IAP   log K(298 K,   1 atm)

	H2(g)           -22.05    -25.15   -3.10  H2
	H2O(g)           -1.50     -0.00    1.50  H2O
	O2(g)           -39.19    -42.08   -2.89  O2


------------------
End of simulation.
------------------

------------------------------------
Reading input data for simulation 2.
------------------------------------

	USE solution 1
	REACTION_TEMPERATURE
	 65.000000
	REACTION_PRESSURE
	 0.000000
	REACTION
	 HCl 1
	0 1.203100 1.483900 1.618400 1.851100 2.095800 2.114800 2.195000 2.264800 2.395500 2.457900 2.764100 2.957400
	USER_GRAPH
	 -headings HCl
	-axis_titles "(Ionic Strength)^0.5 / (mol/kg H2O)^0.5" "molar volume / (cm3/mol)"
	-axis_scale x_axis 0 3
	-axis_scale y_axis 14 32
	10 data 0, 19.163098, 19.323853, 19.388113, 19.490484, 19.578167, 19.581691, 19.606290, 19.626931, 19.657965, 19.670590, 19.713658, 19.722742,
	20 dim d(13)
	30 read d(1), d(2), d(3), d(4), d(5), d(6), d(7), d(8), d(9), d(10), d(11), d(12), d(13),
	40 if step_no = 1 then put(rho, 10)
	50 if step_no > 1 then Vmol = (1e3 + tot("Cl") * 36.461) / (tot("Cl") * rho) - 1e3 / (tot("Cl") * get(10))
	60 if step_no = 1 then dif = 0 else dif = Vmol - d(step_no)
	62 if tot("Cl") > 10 or tc > 200 then goto 150
	100 if step_no = 1 then goto 150
	110 plot_xy mu^0.5, d(step_no), symbol = Triangle, line_w = 0, color = Blue
	120 plot_xy mu^0.5, Vmol, symbol = None, color = Blue, line_width = 2
	122 if step_no > 3 then goto 150
	130 V0 = 18.02
	134 if step_no = 2 then plot_xy 0, V0, symbol = None, color = Blue, line_width = 2 else                        plot_xy 4, V0 + DH_Av * 4 * 0.5, symbol = None, color = Blue, line_width = 1
	150 end
	END
-----------------------------------------
Beginning of batch-reaction calculations.
-----------------------------------------

Reaction step 1.

Using solution 1.	
Using temperature 1.	
Using pressure 1.	
Using reaction 1.	

Reaction 1.	

	  0.000e+00 moles of the following reaction have been added:

	                 Relative
	Reactant            moles

	HCl                  1.00000

	                 Relative
	Element             moles
	Cl                   1.00000
	H                    1.00000

-----------------------------Solution composition------------------------------

	Elements           Molality       Moles

	Pure water     

----------------------------Description of solution----------------------------

                                       pH  =   6.450      Charge balance
                                       pe  =   0.649      Adjusted to redox equilibrium
       Specific Conductance (uS/cm, 65 oC) = 0
                          Density (g/cm3)  =   0.98051
                        Activity of water  =   1.000
                           Ionic strength  =   3.548e-07
                       Mass of water (kg)  =   1.000e+00
                 Total alkalinity (eq/kg)  =  -9.733e-18
                    Total carbon (mol/kg)  =   0.000e+00
                       Total CO2 (mol/kg)  =   0.000e+00
                      Temperature (deg C)  =  65.00
                           Pressure (atm)  =  0.25
                  Electrical balance (eq)  =   9.733e-18
 Percent error, 100*(Cat-|An|)/(Cat+|An|)  =   0.00
                               Iterations  =   9
                                  Total H  = 1.110124e+02
                                  Total O  = 5.550622e+01

----------------------------Distribution of species----------------------------

                                               Log       Log       Log    mole V
   Species          Molality    Activity  Molality  Activity     Gamma   cm3/mol

   H+              3.548e-07   3.545e-07    -6.450    -6.450    -0.000      0.00
   OH-             3.548e-07   3.545e-07    -6.450    -6.450    -0.000     -4.06
   H2O             5.551e+01   1.000e+00     1.744    -0.000     0.000     18.37
H(0)          6.310e-18
   H2              3.155e-18   3.155e-18   -17.501   -17.501     0.000     28.58
O(0)          0.000e+00
   O2              0.000e+00   0.000e+00   -45.996   -45.996     0.000     32.59

------------------------------Saturation indices-------------------------------

	Phase               SI   log IAP   log K(338 K,   0 atm)

	H2(g)           -14.36    -17.50   -3.14  H2
	H2O(g)           -0.61     -0.00    0.61  H2O
	O2(g)           -42.92    -46.00   -3.08  O2


Reaction step 2.

Using solution 1.	
Using temperature 1.	
Using pressure 1.	
Using reaction 1.	

Reaction 1.	

	  1.203e+00 moles of the following reaction have been added:

	                 Relative
	Reactant            moles

	HCl                  1.00000

	                 Relative
	Element             moles
	Cl                   1.00000
	H                    1.00000

-----------------------------Solution composition------------------------------

	Elements           Molality       Moles

	Cl                1.203e+00   1.203e+00

----------------------------Description of solution----------------------------

                                       pH  =   0.060      Charge balance
                                       pe  =   5.483      Adjusted to redox equilibrium
       Specific Conductance (uS/cm, 65 oC) = 707478
                          Density (g/cm3)  =   1.00082
                        Activity of water  =   0.959
                           Ionic strength  =   1.203e+00
                       Mass of water (kg)  =   1.000e+00
                 Total alkalinity (eq/kg)  =  -1.203e+00
                    Total carbon (mol/kg)  =   0.000e+00
                       Total CO2 (mol/kg)  =   0.000e+00
                      Temperature (deg C)  =  65.00
                           Pressure (atm)  =  0.24
                  Electrical balance (eq)  =   7.035e-12
 Percent error, 100*(Cat-|An|)/(Cat+|An|)  =   0.00
                               Iterations  =  15
                                  Total H  = 1.122155e+02
                                  Total O  = 5.550622e+01

----------------------------Distribution of species----------------------------

                                               Log       Log       Log    mole V
   Species          Molality    Activity  Molality  Activity     Gamma   cm3/mol

   H+              1.203e+00   8.707e-01     0.080    -0.060    -0.140      0.00
   OH-             2.546e-13   1.384e-13   -12.594   -12.859    -0.265     -0.69
   H2O             5.551e+01   9.591e-01     1.744    -0.018     0.000     18.37
Cl            1.203e+00
   Cl-             1.203e+00   6.819e-01     0.080    -0.166    -0.247     19.23
H(0)          6.190e-15
   H2              3.095e-15   4.083e-15   -14.509   -14.389     0.120     28.58
O(0)          0.000e+00
   O2              0.000e+00   0.000e+00   -52.377   -52.256     0.120     32.59

------------------------------Saturation indices-------------------------------

	Phase               SI   log IAP   log K(338 K,   0 atm)

	H2(g)           -11.25    -14.39   -3.14  H2
	H2O(g)           -0.63     -0.02    0.61  H2O
	O2(g)           -49.18    -52.26   -3.08  O2


Reaction step 3.

Using solution 1.	
Using temperature 1.	
Using pressure 1.	
Using reaction 1.	

Reaction 1.	

	  1.484e+00 moles of the following reaction have been added:

	                 Relative
	Reactant            moles

	HCl                  1.00000

	                 Relative
	Element             moles
	Cl                   1.00000
	H                    1.00000

-----------------------------Solution composition------------------------------

	Elements           Molality       Moles

	Cl                1.484e+00   1.484e+00

----------------------------Description of solution----------------------------

                                       pH  =  -0.028      Charge balance
                                       pe  =   5.346      Adjusted to redox equilibrium
       Specific Conductance (uS/cm, 65 oC) = 826339
                          Density (g/cm3)  =   1.00524
                        Activity of water  =   0.950
                           Ionic strength  =   1.484e+00
                       Mass of water (kg)  =   1.000e+00
                 Total alkalinity (eq/kg)  =  -1.484e+00
                    Total carbon (mol/kg)  =   0.000e+00
                       Total CO2 (mol/kg)  =   0.000e+00
                      Temperature (deg C)  =  65.00
                           Pressure (atm)  =  0.25
                  Electrical balance (eq)  =   2.111e-09
 Percent error, 100*(Cat-|An|)/(Cat+|An|)  =   0.00
                               Iterations  =  12
                                  Total H  = 1.124963e+02
                                  Total O  = 5.550622e+01

----------------------------Distribution of species----------------------------

                                               Log       Log       Log    mole V
   Species          Molality    Activity  Molality  Activity     Gamma   cm3/mol

   H+              1.484e+00   1.066e+00     0.171     0.028    -0.144      0.00
   OH-             2.118e-13   1.120e-13   -12.674   -12.951    -0.277     -0.09
   H2O             5.551e+01   9.495e-01     1.744    -0.022     0.000     18.37
Cl            1.484e+00
   Cl-             1.484e+00   8.260e-01     0.171    -0.083    -0.254     19.36
H(0)          1.637e-14
   H2              8.187e-15   1.152e-14   -14.087   -13.938     0.148     28.58
O(0)          0.000e+00
   O2              0.000e+00   0.000e+00   -53.314   -53.166     0.148     32.59

------------------------------Saturation indices-------------------------------

	Phase               SI   log IAP   log K(338 K,   0 atm)

	H2(g)           -10.80    -13.94   -3.14  H2
	H2O(g)           -0.63     -0.02    0.61  H2O
	O2(g)           -50.09    -53.17   -3.08  O2


Reaction step 4.

Using solution 1.	
Using temperature 1.	
Using pressure 1.	
Using reaction 1.	

Reaction 1.	

	  1.618e+00 moles of the following reaction have been added:

	                 Relative
	Reactant            moles

	HCl                  1.00000

	                 Relative
	Element             moles
	Cl                   1.00000
	H                    1.00000

-----------------------------Solution composition------------------------------

	Elements           Molality       Moles

	Cl                1.618e+00   1.618e+00

----------------------------Description of solution----------------------------

                                       pH  =  -0.064      Charge balance
                                       pe  =  15.007      Adjusted to redox equilibrium
       Specific Conductance (uS/cm, 65 oC) = 879644
                          Density (g/cm3)  =   1.00733
                        Activity of water  =   0.945
                           Ionic strength  =   1.618e+00
                       Mass of water (kg)  =   1.000e+00
                 Total alkalinity (eq/kg)  =  -1.618e+00
                    Total carbon (mol/kg)  =   0.000e+00
                       Total CO2 (mol/kg)  =   0.000e+00
                      Temperature (deg C)  =  65.00
                           Pressure (atm)  =  0.25
                  Electrical balance (eq)  =   6.467e-14
 Percent error, 100*(Cat-|An|)/(Cat+|An|)  =   0.00
                               Iterations  =  14
                                  Total H  = 1.126308e+02
                                  Total O  = 5.550622e+01

----------------------------Distribution of species----------------------------

                                               Log       Log       Log    mole V
   Species          Molality    Activity  Molality  Activity     Gamma   cm3/mol

   H+              1.618e+00   1.159e+00     0.209     0.064    -0.145      0.00
   OH-             1.960e-13   1.025e-13   -12.708   -12.989    -0.282      0.19
   H2O             5.551e+01   9.450e-01     1.744    -0.025     0.000     18.37
Cl            1.618e+00
   Cl-             1.618e+00   8.949e-01     0.209    -0.048    -0.257     19.42
H(0)          8.918e-34
   H2              4.459e-34   6.473e-34   -33.351   -33.189     0.162     28.58
O(0)          2.950e-15
   O2              1.475e-15   2.141e-15   -14.831   -14.669     0.162     32.59

------------------------------Saturation indices-------------------------------

	Phase               SI   log IAP   log K(338 K,   0 atm)

	H2(g)           -30.05    -33.19   -3.14  H2
	H2O(g)           -0.63     -0.02    0.61  H2O
	O2(g)           -11.59    -14.67   -3.08  O2


Reaction step 5.

Using solution 1.	
Using temperature 1.	
Using pressure 1.	
Using reaction 1.	

Reaction 1.	

	  1.851e+00 moles of the following reaction have been added:

	                 Relative
	Reactant            moles

	HCl                  1.00000

	                 Relative
	Element             moles
	Cl                   1.00000
	H                    1.00000

-----------------------------Solution composition------------------------------

	Elements           Molality       Moles

	Cl                1.851e+00   1.851e+00

----------------------------Description of solution----------------------------

                                       pH  =  -0.120      Charge balance
                                       pe  =   5.839      Adjusted to redox equilibrium
       Specific Conductance (uS/cm, 65 oC) = 967024
                          Density (g/cm3)  =   1.01089
                        Activity of water  =   0.937
                           Ionic strength  =   1.851e+00
                       Mass of water (kg)  =   1.000e+00
                 Total alkalinity (eq/kg)  =  -1.851e+00
                    Total carbon (mol/kg)  =   0.000e+00
                       Total CO2 (mol/kg)  =   0.000e+00
                      Temperature (deg C)  =  65.00
                           Pressure (atm)  =  0.25
                  Electrical balance (eq)  =   1.569e-10
 Percent error, 100*(Cat-|An|)/(Cat+|An|)  =   0.00
                               Iterations  =  13
                                  Total H  = 1.128635e+02
                                  Total O  = 5.550622e+01

----------------------------Distribution of species----------------------------

                                               Log       Log       Log    mole V
   Species          Molality    Activity  Molality  Activity     Gamma   cm3/mol

   H+              1.851e+00   1.319e+00     0.267     0.120    -0.147      0.00
   OH-             1.737e-13   8.926e-14   -12.760   -13.049    -0.289      0.67
   H2O             5.551e+01   9.371e-01     1.744    -0.028     0.000     18.37
Cl            1.851e+00
   Cl-             1.851e+00   1.014e+00     0.267     0.006    -0.261     19.51
H(0)          2.382e-15
   H2              1.191e-15   1.824e-15   -14.924   -14.739     0.185     28.58
O(0)          0.000e+00
   O2              0.000e+00   0.000e+00   -51.762   -51.577     0.185     32.59

------------------------------Saturation indices-------------------------------

	Phase               SI   log IAP   log K(338 K,   0 atm)

	H2(g)           -11.60    -14.74   -3.14  H2
	H2O(g)           -0.64     -0.03    0.61  H2O
	O2(g)           -48.50    -51.58   -3.08  O2


Reaction step 6.

Using solution 1.	
Using temperature 1.	
Using pressure 1.	
Using reaction 1.	

Reaction 1.	

	  2.096e+00 moles of the following reaction have been added:

	                 Relative
	Reactant            moles

	HCl                  1.00000

	                 Relative
	Element             moles
	Cl                   1.00000
	H                    1.00000

-----------------------------Solution composition------------------------------

	Elements           Molality       Moles

	Cl                2.096e+00   2.096e+00

----------------------------Description of solution----------------------------

                                       pH  =  -0.173      Charge balance
                                       pe  =  15.062      Adjusted to redox equilibrium
       Specific Conductance (uS/cm, 65 oC) = 1053008
                          Density (g/cm3)  =   1.01458
                        Activity of water  =   0.929
                           Ionic strength  =   2.096e+00
                       Mass of water (kg)  =   1.000e+00
                 Total alkalinity (eq/kg)  =  -2.096e+00
                    Total carbon (mol/kg)  =   0.000e+00
                       Total CO2 (mol/kg)  =   0.000e+00
                      Temperature (deg C)  =  65.00
                           Pressure (atm)  =  0.25
                  Electrical balance (eq)  =   5.255e-09
 Percent error, 100*(Cat-|An|)/(Cat+|An|)  =   0.00
                               Iterations  =  13
                                  Total H  = 1.131082e+02
                                  Total O  = 5.550622e+01

----------------------------Distribution of species----------------------------

                                               Log       Log       Log    mole V
   Species          Molality    Activity  Molality  Activity     Gamma   cm3/mol

   H+              2.096e+00   1.488e+00     0.321     0.173    -0.149      0.00
   OH-             1.551e-13   7.845e-14   -12.809   -13.105    -0.296      1.16
   H2O             5.551e+01   9.287e-01     1.744    -0.032     0.000     18.37
Cl            2.096e+00
   Cl-             2.096e+00   1.140e+00     0.321     0.057    -0.265     19.60
H(0)          1.023e-33
   H2              5.115e-34   8.288e-34   -33.291   -33.082     0.210     28.58
O(0)          1.557e-15
   O2              7.785e-16   1.261e-15   -15.109   -14.899     0.210     32.59

------------------------------Saturation indices-------------------------------

	Phase               SI   log IAP   log K(338 K,   0 atm)

	H2(g)           -29.94    -33.08   -3.14  H2
	H2O(g)           -0.64     -0.03    0.61  H2O
	O2(g)           -11.82    -14.90   -3.08  O2


Reaction step 7.

Using solution 1.	
Using temperature 1.	
Using pressure 1.	
Using reaction 1.	

Reaction 1.	

	  2.115e+00 moles of the following reaction have been added:

	                 Relative
	Reactant            moles

	HCl                  1.00000

	                 Relative
	Element             moles
	Cl                   1.00000
	H                    1.00000

-----------------------------Solution composition------------------------------

	Elements           Molality       Moles

	Cl                2.115e+00   2.115e+00

----------------------------Description of solution----------------------------

                                       pH  =  -0.176      Charge balance
                                       pe  =   5.843      Adjusted to redox equilibrium
       Specific Conductance (uS/cm, 65 oC) = 1059452
                          Density (g/cm3)  =   1.01486
                        Activity of water  =   0.928
                           Ionic strength  =   2.115e+00
                       Mass of water (kg)  =   1.000e+00
                 Total alkalinity (eq/kg)  =  -2.115e+00
                    Total carbon (mol/kg)  =   0.000e+00
                       Total CO2 (mol/kg)  =   0.000e+00
                      Temperature (deg C)  =  65.00
                           Pressure (atm)  =  0.24
                  Electrical balance (eq)  =   8.997e-10
 Percent error, 100*(Cat-|An|)/(Cat+|An|)  =   0.00
                               Iterations  =  13
                                  Total H  = 1.131272e+02
                                  Total O  = 5.550622e+01

----------------------------Distribution of species----------------------------

                                               Log       Log       Log    mole V
   Species          Molality    Activity  Molality  Activity     Gamma   cm3/mol

   H+              2.115e+00   1.501e+00     0.325     0.176    -0.149      0.00
   OH-             1.538e-13   7.772e-14   -12.813   -13.109    -0.296      1.20
   H2O             5.551e+01   9.281e-01     1.744    -0.032     0.000     18.37
Cl            2.115e+00
   Cl-             2.115e+00   1.149e+00     0.325     0.060    -0.265     19.60
H(0)          2.844e-15
   H2              1.422e-15   2.314e-15   -14.847   -14.636     0.211     28.58
O(0)          0.000e+00
   O2              0.000e+00   0.000e+00   -52.003   -51.792     0.211     32.59

------------------------------Saturation indices-------------------------------

	Phase               SI   log IAP   log K(338 K,   0 atm)

	H2(g)           -11.50    -14.64   -3.14  H2
	H2O(g)           -0.64     -0.03    0.61  H2O
	O2(g)           -48.71    -51.79   -3.08  O2


Reaction step 8.

Using solution 1.	
Using temperature 1.	
Using pressure 1.	
Using reaction 1.	

Reaction 1.	

	  2.195e+00 moles of the following reaction have been added:

	                 Relative
	Reactant            moles

	HCl                  1.00000

	                 Relative
	Element             moles
	Cl                   1.00000
	H                    1.00000

-----------------------------Solution composition------------------------------

	Elements           Molality       Moles

	Cl                2.195e+00   2.195e+00

----------------------------Description of solution----------------------------

                                       pH  =  -0.192      Charge balance
                                       pe  =  15.162      Adjusted to redox equilibrium
       Specific Conductance (uS/cm, 65 oC) = 1086310
                          Density (g/cm3)  =   1.01606
                        Activity of water  =   0.925
                           Ionic strength  =   2.195e+00
                       Mass of water (kg)  =   1.000e+00
                 Total alkalinity (eq/kg)  =  -2.195e+00
                    Total carbon (mol/kg)  =   0.000e+00
                       Total CO2 (mol/kg)  =   0.000e+00
                      Temperature (deg C)  =  65.00
                           Pressure (atm)  =  0.23
                  Electrical balance (eq)  =   1.992e-08
 Percent error, 100*(Cat-|An|)/(Cat+|An|)  =   0.00
                               Iterations  =  14
                                  Total H  = 1.132074e+02
                                  Total O  = 5.550622e+01

----------------------------Distribution of species----------------------------

                                               Log       Log       Log    mole V
   Species          Molality    Activity  Molality  Activity     Gamma   cm3/mol

   H+              2.195e+00   1.556e+00     0.341     0.192    -0.149      0.00
   OH-             1.486e-13   7.475e-14   -12.828   -13.126    -0.299      1.36
   H2O             5.551e+01   9.254e-01     1.744    -0.034     0.000     18.37
Cl            2.195e+00
   Cl-             2.195e+00   1.191e+00     0.341     0.076    -0.266     19.63
H(0)          6.911e-34
   H2              3.455e-34   5.728e-34   -33.462   -33.242     0.219     28.58
O(0)          3.163e-15
   O2              1.582e-15   2.622e-15   -14.801   -14.581     0.219     32.59

------------------------------Saturation indices-------------------------------

	Phase               SI   log IAP   log K(338 K,   0 atm)

	H2(g)           -30.10    -33.24   -3.14  H2
	H2O(g)           -0.64     -0.03    0.61  H2O
	O2(g)           -11.50    -14.58   -3.08  O2


Reaction step 9.

Using solution 1.	
Using temperature 1.	
Using pressure 1.	
Using reaction 1.	

Reaction 1.	

	  2.265e+00 moles of the following reaction have been added:

	                 Relative
	Reactant            moles

	HCl                  1.00000

	                 Relative
	Element             moles
	Cl                   1.00000
	H                    1.00000

-----------------------------Solution composition------------------------------

	Elements           Molality       Moles

	Cl                2.265e+00   2.265e+00

----------------------------Description of solution----------------------------

                                       pH  =  -0.205      Charge balance
                                       pe  =  15.172      Adjusted to redox equilibrium
       Specific Conductance (uS/cm, 65 oC) = 1109241
                          Density (g/cm3)  =   1.01709
                        Activity of water  =   0.923
                           Ionic strength  =   2.265e+00
                       Mass of water (kg)  =   1.000e+00
                 Total alkalinity (eq/kg)  =  -2.265e+00
                    Total carbon (mol/kg)  =   0.000e+00
                       Total CO2 (mol/kg)  =   0.000e+00
                      Temperature (deg C)  =  65.00
                           Pressure (atm)  =  0.23
                  Electrical balance (eq)  =   1.497e-08
 Percent error, 100*(Cat-|An|)/(Cat+|An|)  =   0.00
                               Iterations  =  14
                                  Total H  = 1.132772e+02
                                  Total O  = 5.550622e+01

----------------------------Distribution of species----------------------------

                                               Log       Log       Log    mole V
   Species          Molality    Activity  Molality  Activity     Gamma   cm3/mol

   H+              2.265e+00   1.604e+00     0.355     0.205    -0.150      0.00
   OH-             1.444e-13   7.233e-14   -12.840   -13.141    -0.300      1.50
   H2O             5.551e+01   9.230e-01     1.744    -0.035     0.000     18.37
Cl            2.265e+00
   Cl-             2.265e+00   1.227e+00     0.355     0.089    -0.266     19.65
H(0)          6.882e-34
   H2              3.441e-34   5.797e-34   -33.463   -33.237     0.226     28.58
O(0)          3.024e-15
   O2              1.512e-15   2.547e-15   -14.820   -14.594     0.226     32.59

------------------------------Saturation indices-------------------------------

	Phase               SI   log IAP   log K(338 K,   0 atm)

	H2(g)           -30.10    -33.24   -3.14  H2
	H2O(g)           -0.64     -0.03    0.61  H2O
	O2(g)           -11.52    -14.59   -3.08  O2


Reaction step 10.

Using solution 1.	
Using temperature 1.	
Using pressure 1.	
Using reaction 1.	

Reaction 1.	

	  2.396e+00 moles of the following reaction have been added:

	                 Relative
	Reactant            moles

	HCl                  1.00000

	                 Relative
	Element             moles
	Cl                   1.00000
	H                    1.00000

-----------------------------Solution composition------------------------------

	Elements           Molality       Moles

	Cl                2.395e+00   2.396e+00

----------------------------Description of solution----------------------------

                                       pH  =  -0.229      Charge balance
                                       pe  =  15.054      Adjusted to redox equilibrium
       Specific Conductance (uS/cm, 65 oC) = 1151118
                          Density (g/cm3)  =   1.01901
                        Activity of water  =   0.919
                           Ionic strength  =   2.395e+00
                       Mass of water (kg)  =   1.000e+00
                 Total alkalinity (eq/kg)  =  -2.396e+00
                    Total carbon (mol/kg)  =   0.000e+00
                       Total CO2 (mol/kg)  =   0.000e+00
                      Temperature (deg C)  =  65.00
                           Pressure (atm)  =  0.25
                  Electrical balance (eq)  =   1.297e-08
 Percent error, 100*(Cat-|An|)/(Cat+|An|)  =   0.00
                               Iterations  =  14
                                  Total H  = 1.134079e+02
                                  Total O  = 5.550622e+01

----------------------------Distribution of species----------------------------

                                               Log       Log       Log    mole V
   Species          Molality    Activity  Molality  Activity     Gamma   cm3/mol

   H+              2.396e+00   1.693e+00     0.379     0.229    -0.151      0.00
   OH-             1.370e-13   6.817e-14   -12.863   -13.166    -0.303      1.76
   H2O             5.551e+01   9.186e-01     1.744    -0.037     0.000     18.37
Cl            2.395e+00
   Cl-             2.395e+00   1.294e+00     0.379     0.112    -0.267     19.69
H(0)          1.283e-33
   H2              6.413e-34   1.113e-33   -33.193   -32.953     0.240     28.58
O(0)          7.879e-16
   O2              3.939e-16   6.839e-16   -15.405   -15.165     0.240     32.59

------------------------------Saturation indices-------------------------------

	Phase               SI   log IAP   log K(338 K,   0 atm)

	H2(g)           -29.82    -32.95   -3.14  H2
	H2O(g)           -0.65     -0.04    0.61  H2O
	O2(g)           -12.09    -15.17   -3.08  O2


Reaction step 11.

Using solution 1.	
Using temperature 1.	
Using pressure 1.	
Using reaction 1.	

Reaction 1.	

	  2.458e+00 moles of the following reaction have been added:

	                 Relative
	Reactant            moles

	HCl                  1.00000

	                 Relative
	Element             moles
	Cl                   1.00000
	H                    1.00000

-----------------------------Solution composition------------------------------

	Elements           Molality       Moles

	Cl                2.458e+00   2.458e+00

----------------------------Description of solution----------------------------

                                       pH  =  -0.240      Charge balance
                                       pe  =  15.188      Adjusted to redox equilibrium
       Specific Conductance (uS/cm, 65 oC) = 1170642
                          Density (g/cm3)  =   1.01993
                        Activity of water  =   0.916
                           Ionic strength  =   2.458e+00
                       Mass of water (kg)  =   1.000e+00
                 Total alkalinity (eq/kg)  =  -2.458e+00
                    Total carbon (mol/kg)  =   0.000e+00
                       Total CO2 (mol/kg)  =   0.000e+00
                      Temperature (deg C)  =  65.00
                           Pressure (atm)  =  0.23
                  Electrical balance (eq)  =   1.403e-08
 Percent error, 100*(Cat-|An|)/(Cat+|An|)  =   0.00
                               Iterations  =  14
                                  Total H  = 1.134703e+02
                                  Total O  = 5.550622e+01

----------------------------Distribution of species----------------------------

                                               Log       Log       Log    mole V
   Species          Molality    Activity  Molality  Activity     Gamma   cm3/mol

   H+              2.458e+00   1.736e+00     0.391     0.240    -0.151      0.00
   OH-             1.338e-13   6.634e-14   -12.874   -13.178    -0.305      1.89
   H2O             5.551e+01   9.164e-01     1.744    -0.038     0.000     18.37
Cl            2.458e+00
   Cl-             2.458e+00   1.327e+00     0.391     0.123    -0.268     19.71
H(0)          7.162e-34
   H2              3.581e-34   6.307e-34   -33.446   -33.200     0.246     28.58
O(0)          2.409e-15
   O2              1.204e-15   2.121e-15   -14.919   -14.673     0.246     32.59

------------------------------Saturation indices-------------------------------

	Phase               SI   log IAP   log K(338 K,   0 atm)

	H2(g)           -30.06    -33.20   -3.14  H2
	H2O(g)           -0.65     -0.04    0.61  H2O
	O2(g)           -11.60    -14.67   -3.08  O2


Reaction step 12.

Using solution 1.	
Using temperature 1.	
Using pressure 1.	
Using reaction 1.	

Reaction 1.	

	  2.764e+00 moles of the following reaction have been added:

	                 Relative
	Reactant            moles

	HCl                  1.00000

	                 Relative
	Element             moles
	Cl                   1.00000
	H                    1.00000

-----------------------------Solution composition------------------------------

	Elements           Molality       Moles

	Cl                2.764e+00   2.764e+00

----------------------------Description of solution----------------------------

                                       pH  =  -0.289      Charge balance
                                       pe  =  15.012      Adjusted to redox equilibrium
       Specific Conductance (uS/cm, 65 oC) = 1262371
                          Density (g/cm3)  =   1.02435
                        Activity of water  =   0.906
                           Ionic strength  =   2.764e+00
                       Mass of water (kg)  =   1.000e+00
                 Total alkalinity (eq/kg)  =  -2.764e+00
                    Total carbon (mol/kg)  =   0.000e+00
                       Total CO2 (mol/kg)  =   0.000e+00
                      Temperature (deg C)  =  65.00
                           Pressure (atm)  =  0.25
                  Electrical balance (eq)  =   1.713e-16
 Percent error, 100*(Cat-|An|)/(Cat+|An|)  =   0.00
                               Iterations  =  14
                                  Total H  = 1.137765e+02
                                  Total O  = 5.550622e+01

----------------------------Distribution of species----------------------------

                                               Log       Log       Log    mole V
   Species          Molality    Activity  Molality  Activity     Gamma   cm3/mol

   H+              2.764e+00   1.946e+00     0.442     0.289    -0.152      0.00
   OH-             1.197e-13   5.852e-14   -12.922   -13.233    -0.311      2.49
   H2O             5.551e+01   9.060e-01     1.744    -0.043     0.000     18.37
Cl            2.764e+00
   Cl-             2.764e+00   1.486e+00     0.442     0.172    -0.269     19.80
H(0)          1.886e-33
   H2              9.429e-34   1.782e-33   -33.026   -32.749     0.276     28.58
O(0)          2.748e-16
   O2              1.374e-16   2.597e-16   -15.862   -15.586     0.276     32.59

------------------------------Saturation indices-------------------------------

	Phase               SI   log IAP   log K(338 K,   0 atm)

	H2(g)           -29.61    -32.75   -3.14  H2
	H2O(g)           -0.65     -0.04    0.61  H2O
	O2(g)           -12.51    -15.59   -3.08  O2


Reaction step 13.

Using solution 1.	
Using temperature 1.	
Using pressure 1.	
Using reaction 1.	

Reaction 1.	

	  2.957e+00 moles of the following reaction have been added:

	                 Relative
	Reactant            moles

	HCl                  1.00000

	                 Relative
	Element             moles
	Cl                   1.00000
	H                    1.00000

-----------------------------Solution composition------------------------------

	Elements           Molality       Moles

	Cl                2.957e+00   2.957e+00

----------------------------Description of solution----------------------------

                                       pH  =  -0.318      Charge balance
                                       pe  =   5.742      Adjusted to redox equilibrium
       Specific Conductance (uS/cm, 65 oC) = 1317057
                          Density (g/cm3)  =   1.02710
                        Activity of water  =   0.899
                           Ionic strength  =   2.957e+00
                       Mass of water (kg)  =   1.000e+00
                 Total alkalinity (eq/kg)  =  -2.957e+00
                    Total carbon (mol/kg)  =   0.000e+00
                       Total CO2 (mol/kg)  =   0.000e+00
                      Temperature (deg C)  =  65.00
                           Pressure (atm)  =  0.25
                  Electrical balance (eq)  =   1.005e-13
 Percent error, 100*(Cat-|An|)/(Cat+|An|)  =   0.00
                               Iterations  =  13
                                  Total H  = 1.139698e+02
                                  Total O  = 5.550622e+01

----------------------------Distribution of species----------------------------

                                               Log       Log       Log    mole V
   Species          Molality    Activity  Molality  Activity     Gamma   cm3/mol

   H+              2.957e+00   2.078e+00     0.471     0.318    -0.153      0.00
   OH-             1.122e-13   5.441e-14   -12.950   -13.264    -0.314      2.86
   H2O             5.551e+01   8.994e-01     1.744    -0.046     0.000     18.37
Cl            2.957e+00
   Cl-             2.957e+00   1.588e+00     0.471     0.201    -0.270     19.86
H(0)          7.142e-15
   H2              3.571e-15   7.056e-15   -14.447   -14.151     0.296     28.58
O(0)          0.000e+00
   O2              0.000e+00   0.000e+00   -53.083   -52.787     0.296     32.59

------------------------------Saturation indices-------------------------------

	Phase               SI   log IAP   log K(338 K,   0 atm)

	H2(g)           -11.01    -14.15   -3.14  H2
	H2O(g)           -0.66     -0.05    0.61  H2O
	O2(g)           -49.71    -52.79   -3.08  O2


------------------
End of simulation.
------------------

------------------------------------
Reading input data for simulation 3.
------------------------------------

	USE solution 1
	REACTION_TEMPERATURE
	 65.000000
	REACTION_PRESSURE
	 0.000000
	REACTION
	 NaCl 1
	0 0.100000 0.216680 0.256170 0.349370 0.518980 0.527510 0.625830 0.779010 0.875250 1.000000 1.103670 1.225410 1.556330 1.609170 2.000000 2.232540 2.500000 2.547010 3.035630 3.989210 4.266790 4.565810 5.557430 5.715770 5.913880
	USER_GRAPH
	-headings NaCl
	10 data 0, 18.495315, 18.721759, 19.165135, 19.108003, 19.224043, 19.387386, 19.353910, 19.604876, 19.665787, 20.101217, 19.918429, 20.026973, 20.211263, 20.253637, 20.621179, 20.668477, 20.839475, 20.873152, 21.102330, 21.500523, 21.609698, 21.734248, 22.074488, 22.120537, 22.205722,
	20 dim d(26)
	30 read d(1), d(2), d(3), d(4), d(5), d(6), d(7), d(8), d(9), d(10), d(11), d(12), d(13), d(14), d(15), d(16), d(17), d(18), d(19), d(20), d(21), d(22), d(23), d(24), d(25), d(26),
	40 if step_no = 1 then put(rho, 10)
	50 if step_no > 1 then Vmol = (1e3 + tot("Cl") * 58.4428) / (tot("Cl") * rho) - 1e3 / (tot("Cl") * get(10))
	60 if step_no = 1 then dif = 0 else dif = Vmol - d(step_no)
	62 if step_no = 1 then goto 150
	70 plot_xy mu^0.5, d(step_no), line_w = 0, color = Red #aph_x tot("Na") # dif, str$(tc), str$(pressure), str$(step_no + get(1))
	80 plot_xy mu^0.5, Vmol, symbol = None, color = Red, line_width = 2 #step_no = 264 then put(step_no + get(1), 1)
	122 if step_no > 3 then goto 150
	130 Van = 18.02
	 131 Vcat = 16.7 - 18.02
	134 if step_no = 2 then plot_xy 0, Van + Vcat, symbol = None, color = Red, line_width = 1 else                        plot_xy 4, Van + Vcat + DH_Av * 4, symbol = None, color = Red, line_width = 1
	150 end
	END
-----------------------------------------
Beginning of batch-reaction calculations.
-----------------------------------------

Reaction step 1.

Using solution 1.	
Using temperature 1.	
Using pressure 1.	
Using reaction 1.	

Reaction 1.	

	  0.000e+00 moles of the following reaction have been added:

	                 Relative
	Reactant            moles

	NaCl                 1.00000

	                 Relative
	Element             moles
	Cl                   1.00000
	Na                   1.00000

-----------------------------Solution composition------------------------------

	Elements           Molality       Moles

	Pure water     

----------------------------Description of solution----------------------------

                                       pH  =   6.450      Charge balance
                                       pe  =   0.649      Adjusted to redox equilibrium
       Specific Conductance (uS/cm, 65 oC) = 0
                          Density (g/cm3)  =   0.98051
                        Activity of water  =   1.000
                           Ionic strength  =   3.548e-07
                       Mass of water (kg)  =   1.000e+00
                 Total alkalinity (eq/kg)  =  -9.733e-18
                    Total carbon (mol/kg)  =   0.000e+00
                       Total CO2 (mol/kg)  =   0.000e+00
                      Temperature (deg C)  =  65.00
                           Pressure (atm)  =  0.25
                  Electrical balance (eq)  =   9.733e-18
 Percent error, 100*(Cat-|An|)/(Cat+|An|)  =   0.00
                               Iterations  =   9
                                  Total H  = 1.110124e+02
                                  Total O  = 5.550622e+01

----------------------------Distribution of species----------------------------

                                               Log       Log       Log    mole V
   Species          Molality    Activity  Molality  Activity     Gamma   cm3/mol

   H+              3.548e-07   3.545e-07    -6.450    -6.450    -0.000      0.00
   OH-             3.548e-07   3.545e-07    -6.450    -6.450    -0.000     -4.06
   H2O             5.551e+01   1.000e+00     1.744    -0.000     0.000     18.37
H(0)          6.310e-18
   H2              3.155e-18   3.155e-18   -17.501   -17.501     0.000     28.58
O(0)          0.000e+00
   O2              0.000e+00   0.000e+00   -45.996   -45.996     0.000     32.59

------------------------------Saturation indices-------------------------------

	Phase               SI   log IAP   log K(338 K,   0 atm)

	H2(g)           -14.36    -17.50   -3.14  H2
	H2O(g)           -0.61     -0.00    0.61  H2O
	O2(g)           -42.92    -46.00   -3.08  O2


Reaction step 2.

Using solution 1.	
Using temperature 1.	
Using pressure 1.	
Using reaction 1.	

Reaction 1.	

	  1.000e-01 moles of the following reaction have been added:

	                 Relative
	Reactant            moles

	NaCl                 1.00000

	                 Relative
	Element             moles
	Cl                   1.00000
	Na                   1.00000

-----------------------------Solution composition------------------------------

	Elements           Molality       Moles

	Cl                1.000e-01   1.000e-01
	Na                1.000e-01   1.000e-01

----------------------------Description of solution----------------------------

                                       pH  =   6.432      Charge balance
                                       pe  =   0.452      Adjusted to redox equilibrium
       Specific Conductance (uS/cm, 65 oC) = 21925
                          Density (g/cm3)  =   0.98445
                        Activity of water  =   0.997
                           Ionic strength  =   1.000e-01
                       Mass of water (kg)  =   1.000e+00
                 Total alkalinity (eq/kg)  =   1.364e-14
                    Total carbon (mol/kg)  =   0.000e+00
                       Total CO2 (mol/kg)  =   0.000e+00
                      Temperature (deg C)  =  65.00
                           Pressure (atm)  =  0.25
                  Electrical balance (eq)  =   2.504e-14
 Percent error, 100*(Cat-|An|)/(Cat+|An|)  =   0.00
                               Iterations  =  40
                                  Total H  = 1.110124e+02
                                  Total O  = 5.550622e+01

----------------------------Distribution of species----------------------------

                                               Log       Log       Log    mole V
   Species          Molality    Activity  Molality  Activity     Gamma   cm3/mol

   OH-             4.541e-07   3.388e-07    -6.343    -6.470    -0.127     -3.47
   H+              4.541e-07   3.697e-07    -6.343    -6.432    -0.089      0.00
   H2O             5.551e+01   9.966e-01     1.744    -0.001     0.000     18.37
Cl            1.000e-01
   Cl-             1.000e-01   7.485e-02    -1.000    -1.126    -0.126     18.30
H(0)          1.663e-17
   H2              8.313e-18   8.507e-18   -17.080   -17.070     0.010     28.58
Na            1.000e-01
   Na+             1.000e-01   7.673e-02    -1.000    -1.115    -0.115      0.23
   NaOH            2.540e-18   2.599e-18   -17.595   -17.585     0.010     (0)  
O(0)          0.000e+00
   O2              0.000e+00   0.000e+00   -46.871   -46.861     0.010     32.59

------------------------------Saturation indices-------------------------------

	Phase               SI   log IAP   log K(338 K,   0 atm)

	H2(g)           -13.93    -17.07   -3.14  H2
	H2O(g)           -0.61     -0.00    0.61  H2O
	Halite           -3.90     -2.24    1.66  NaCl
	O2(g)           -43.78    -46.86   -3.08  O2


Reaction step 3.

Using solution 1.	
Using temperature 1.	
Using pressure 1.	
Using reaction 1.	

Reaction 1.	

	  2.167e-01 moles of the following reaction have been added:

	                 Relative
	Reactant            moles

	NaCl                 1.00000

	                 Relative
	Element             moles
	Cl                   1.00000
	Na                   1.00000

-----------------------------Solution composition------------------------------

	Elements           Molality       Moles

	Cl                2.167e-01   2.167e-01
	Na                2.167e-01   2.167e-01

----------------------------Description of solution----------------------------

                                       pH  =   6.422      Charge balance
                                       pe  =   0.406      Adjusted to redox equilibrium
       Specific Conductance (uS/cm, 65 oC) = 45391
                          Density (g/cm3)  =   0.98897
                        Activity of water  =   0.993
                           Ionic strength  =   2.167e-01
                       Mass of water (kg)  =   1.000e+00
                 Total alkalinity (eq/kg)  =   1.988e-17
                    Total carbon (mol/kg)  =   0.000e+00
                       Total CO2 (mol/kg)  =   0.000e+00
                      Temperature (deg C)  =  65.00
                           Pressure (atm)  =  0.25
                  Electrical balance (eq)  =   1.385e-16
 Percent error, 100*(Cat-|An|)/(Cat+|An|)  =   0.00
                               Iterations  =   8
                                  Total H  = 1.110124e+02
                                  Total O  = 5.550622e+01

----------------------------Distribution of species----------------------------

                                               Log       Log       Log    mole V
   Species          Molality    Activity  Molality  Activity     Gamma   cm3/mol

   OH-             4.836e-07   3.299e-07    -6.315    -6.482    -0.166     -3.08
   H+              4.836e-07   3.782e-07    -6.315    -6.422    -0.107      0.00
   H2O             5.551e+01   9.926e-01     1.744    -0.003     0.000     18.37
Cl            2.167e-01
   Cl-             2.167e-01   1.489e-01    -0.664    -0.827    -0.163     18.49
H(0)          2.090e-17
   H2              1.045e-17   1.098e-17   -16.981   -16.959     0.022     28.58
Na            2.167e-01
   Na+             2.167e-01   1.563e-01    -0.664    -0.806    -0.142      0.35
   NaOH            4.905e-18   5.156e-18   -17.309   -17.288     0.022     (0)  
O(0)          0.000e+00
   O2              0.000e+00   0.000e+00   -47.108   -47.086     0.022     32.59

------------------------------Saturation indices-------------------------------

	Phase               SI   log IAP   log K(338 K,   0 atm)

	H2(g)           -13.82    -16.96   -3.14  H2
	H2O(g)           -0.61     -0.00    0.61  H2O
	Halite           -3.29     -1.63    1.66  NaCl
	O2(g)           -44.01    -47.09   -3.08  O2


Reaction step 4.

Using solution 1.	
Using temperature 1.	
Using pressure 1.	
Using reaction 1.	

Reaction 1.	

	  2.562e-01 moles of the following reaction have been added:

	                 Relative
	Reactant            moles

	NaCl                 1.00000

	                 Relative
	Element             moles
	Cl                   1.00000
	Na                   1.00000

-----------------------------Solution composition------------------------------

	Elements           Molality       Moles

	Cl                2.562e-01   2.562e-01
	Na                2.562e-01   2.562e-01

----------------------------Description of solution----------------------------

                                       pH  =   6.420      Charge balance
                                       pe  =   0.068      Adjusted to redox equilibrium
       Specific Conductance (uS/cm, 65 oC) = 53132
                          Density (g/cm3)  =   0.99048
                        Activity of water  =   0.991
                           Ionic strength  =   2.562e-01
                       Mass of water (kg)  =   1.000e+00
                 Total alkalinity (eq/kg)  =   4.603e-14
                    Total carbon (mol/kg)  =   0.000e+00
                       Total CO2 (mol/kg)  =   0.000e+00
                      Temperature (deg C)  =  65.00
                           Pressure (atm)  =  0.25
                  Electrical balance (eq)  =   4.405e-13
 Percent error, 100*(Cat-|An|)/(Cat+|An|)  =   0.00
                               Iterations  =  22
                                  Total H  = 1.110124e+02
                                  Total O  = 5.550622e+01

----------------------------Distribution of species----------------------------

                                               Log       Log       Log    mole V
   Species          Molality    Activity  Molality  Activity     Gamma   cm3/mol

   OH-             4.905e-07   3.276e-07    -6.309    -6.485    -0.175     -2.97
   H+              4.905e-07   3.803e-07    -6.309    -6.420    -0.111      0.00
   H2O             5.551e+01   9.913e-01     1.744    -0.004     0.000     18.37
Cl            2.562e-01
   Cl-             2.562e-01   1.726e-01    -0.591    -0.763    -0.171     18.54
H(0)          9.942e-17
   H2              4.971e-17   5.273e-17   -16.304   -16.278     0.026     28.58
Na            2.562e-01
   Na+             2.562e-01   1.825e-01    -0.591    -0.739    -0.147      0.37
   NaOH            5.638e-18   5.981e-18   -17.249   -17.223     0.026     (0)  
O(0)          0.000e+00
   O2              0.000e+00   0.000e+00   -48.475   -48.450     0.026     32.59

------------------------------Saturation indices-------------------------------

	Phase               SI   log IAP   log K(338 K,   0 atm)

	H2(g)           -13.14    -16.28   -3.14  H2
	H2O(g)           -0.61     -0.00    0.61  H2O
	Halite           -3.16     -1.50    1.66  NaCl
	O2(g)           -45.37    -48.45   -3.08  O2


Reaction step 5.

Using solution 1.	
Using temperature 1.	
Using pressure 1.	
Using reaction 1.	

Reaction 1.	

	  3.494e-01 moles of the following reaction have been added:

	                 Relative
	Reactant            moles

	NaCl                 1.00000

	                 Relative
	Element             moles
	Cl                   1.00000
	Na                   1.00000

-----------------------------Solution composition------------------------------

	Elements           Molality       Moles

	Cl                3.494e-01   3.494e-01
	Na                3.494e-01   3.494e-01

----------------------------Description of solution----------------------------

                                       pH  =   6.415      Charge balance
                                       pe  =   0.679      Adjusted to redox equilibrium
       Specific Conductance (uS/cm, 65 oC) = 71176
                          Density (g/cm3)  =   0.99403
                        Activity of water  =   0.988
                           Ionic strength  =   3.494e-01
                       Mass of water (kg)  =   1.000e+00
                 Total alkalinity (eq/kg)  =   5.409e-15
                    Total carbon (mol/kg)  =   0.000e+00
                       Total CO2 (mol/kg)  =   0.000e+00
                      Temperature (deg C)  =  65.00
                           Pressure (atm)  =  0.25
                  Electrical balance (eq)  =   1.972e-13
 Percent error, 100*(Cat-|An|)/(Cat+|An|)  =   0.00
                               Iterations  =  11
                                  Total H  = 1.110124e+02
                                  Total O  = 5.550622e+01

----------------------------Distribution of species----------------------------

                                               Log       Log       Log    mole V
   Species          Molality    Activity  Molality  Activity     Gamma   cm3/mol

   OH-             5.034e-07   3.231e-07    -6.298    -6.491    -0.193     -2.71
   H+              5.034e-07   3.844e-07    -6.298    -6.415    -0.117      0.00
   H2O             5.551e+01   9.881e-01     1.744    -0.005     0.000     18.37
Cl            3.494e-01
   Cl-             3.494e-01   2.269e-01    -0.457    -0.644    -0.187     18.65
H(0)          5.945e-18
   H2              2.973e-18   3.222e-18   -17.527   -17.492     0.035     28.58
Na            3.494e-01
   Na+             3.494e-01   2.441e-01    -0.457    -0.612    -0.156      0.43
   NaOH            7.277e-18   7.886e-18   -17.138   -17.103     0.035     (0)  
O(0)          0.000e+00
   O2              0.000e+00   0.000e+00   -46.059   -46.025     0.035     32.59

------------------------------Saturation indices-------------------------------

	Phase               SI   log IAP   log K(338 K,   0 atm)

	H2(g)           -14.35    -17.49   -3.14  H2
	H2O(g)           -0.62     -0.01    0.61  H2O
	Halite           -2.92     -1.26    1.66  NaCl
	O2(g)           -42.95    -46.02   -3.08  O2


Reaction step 6.

Using solution 1.	
Using temperature 1.	
Using pressure 1.	
Using reaction 1.	

Reaction 1.	

	  5.190e-01 moles of the following reaction have been added:

	                 Relative
	Reactant            moles

	NaCl                 1.00000

	                 Relative
	Element             moles
	Cl                   1.00000
	Na                   1.00000

-----------------------------Solution composition------------------------------

	Elements           Molality       Moles

	Cl                5.190e-01   5.190e-01
	Na                5.190e-01   5.190e-01

----------------------------Description of solution----------------------------

                                       pH  =   6.409      Charge balance
                                       pe  =   8.327      Adjusted to redox equilibrium
       Specific Conductance (uS/cm, 65 oC) = 98255
                          Density (g/cm3)  =   1.00041
                        Activity of water  =   0.982
                           Ionic strength  =   5.190e-01
                       Mass of water (kg)  =   1.000e+00
                 Total alkalinity (eq/kg)  =   6.851e-14
                    Total carbon (mol/kg)  =   0.000e+00
                       Total CO2 (mol/kg)  =   0.000e+00
                      Temperature (deg C)  =  65.00
                           Pressure (atm)  =  0.25
                  Electrical balance (eq)  =   8.738e-13
 Percent error, 100*(Cat-|An|)/(Cat+|An|)  =   0.00
                               Iterations  =  16
                                  Total H  = 1.110124e+02
                                  Total O  = 5.550622e+01

----------------------------Distribution of species----------------------------

                                               Log       Log       Log    mole V
   Species          Molality    Activity  Molality  Activity     Gamma   cm3/mol

   OH-             5.201e-07   3.167e-07    -6.284    -6.499    -0.215     -2.27
   H+              5.201e-07   3.898e-07    -6.284    -6.409    -0.125      0.00
   H2O             5.551e+01   9.824e-01     1.744    -0.008     0.000     18.37
Cl            5.190e-01
   Cl-             5.190e-01   3.217e-01    -0.285    -0.492    -0.208     18.81
H(0)          2.985e-33
   H2              1.492e-33   1.682e-33   -32.826   -32.774     0.052     28.58
Na            5.190e-01
   Na+             5.190e-01   3.564e-01    -0.285    -0.448    -0.163      0.52
   NaOH            1.002e-17   1.129e-17   -16.999   -16.947     0.052     (0)  
O(0)          6.082e-16
   O2              3.041e-16   3.427e-16   -15.517   -15.465     0.052     32.59

------------------------------Saturation indices-------------------------------

	Phase               SI   log IAP   log K(338 K,   0 atm)

	H2(g)           -29.64    -32.77   -3.14  H2
	H2O(g)           -0.62     -0.01    0.61  H2O
	Halite           -2.60     -0.94    1.66  NaCl
	O2(g)           -12.39    -15.47   -3.08  O2


Reaction step 7.

Using solution 1.	
Using temperature 1.	
Using pressure 1.	
Using reaction 1.	

Reaction 1.	

	  5.275e-01 moles of the following reaction have been added:

	                 Relative
	Reactant            moles

	NaCl                 1.00000

	                 Relative
	Element             moles
	Cl                   1.00000
	Na                   1.00000

-----------------------------Solution composition------------------------------

	Elements           Molality       Moles

	Cl                5.275e-01   5.275e-01
	Na                5.275e-01   5.275e-01

----------------------------Description of solution----------------------------

                                       pH  =   6.409      Charge balance
                                       pe  =   8.330      Adjusted to redox equilibrium
       Specific Conductance (uS/cm, 65 oC) = 99519
                          Density (g/cm3)  =   1.00073
                        Activity of water  =   0.982
                           Ionic strength  =   5.275e-01
                       Mass of water (kg)  =   1.000e+00
                 Total alkalinity (eq/kg)  =   9.029e-14
                    Total carbon (mol/kg)  =   0.000e+00
                       Total CO2 (mol/kg)  =   0.000e+00
                      Temperature (deg C)  =  65.00
                           Pressure (atm)  =  0.25
                  Electrical balance (eq)  =   7.707e-13
 Percent error, 100*(Cat-|An|)/(Cat+|An|)  =   0.00
                               Iterations  =  16
                                  Total H  = 1.110124e+02
                                  Total O  = 5.550622e+01

----------------------------Distribution of species----------------------------

                                               Log       Log       Log    mole V
   Species          Molality    Activity  Molality  Activity     Gamma   cm3/mol

   OH-             5.208e-07   3.164e-07    -6.283    -6.500    -0.216     -2.24
   H+              5.208e-07   3.900e-07    -6.283    -6.409    -0.126      0.00
   H2O             5.551e+01   9.821e-01     1.744    -0.008     0.000     18.37
Cl            5.275e-01
   Cl-             5.275e-01   3.264e-01    -0.278    -0.486    -0.208     18.81
H(0)          2.935e-33
   H2              1.467e-33   1.657e-33   -32.833   -32.781     0.053     28.58
Na            5.275e-01
   Na+             5.275e-01   3.620e-01    -0.278    -0.441    -0.163      0.52
   NaOH            1.015e-17   1.146e-17   -16.994   -16.941     0.053     (0)  
O(0)          6.250e-16
   O2              3.125e-16   3.529e-16   -15.505   -15.452     0.053     32.59

------------------------------Saturation indices-------------------------------

	Phase               SI   log IAP   log K(338 K,   0 atm)

	H2(g)           -29.64    -32.78   -3.14  H2
	H2O(g)           -0.62     -0.01    0.61  H2O
	Halite           -2.59     -0.93    1.66  NaCl
	O2(g)           -12.37    -15.45   -3.08  O2


Reaction step 8.

Using solution 1.	
Using temperature 1.	
Using pressure 1.	
Using reaction 1.	

Reaction 1.	

	  6.258e-01 moles of the following reaction have been added:

	                 Relative
	Reactant            moles

	NaCl                 1.00000

	                 Relative
	Element             moles
	Cl                   1.00000
	Na                   1.00000

-----------------------------Solution composition------------------------------

	Elements           Molality       Moles

	Cl                6.258e-01   6.258e-01
	Na                6.258e-01   6.258e-01

----------------------------Description of solution----------------------------

                                       pH  =   6.406      Charge balance
                                       pe  =   8.092      Adjusted to redox equilibrium
       Specific Conductance (uS/cm, 65 oC) = 113614
                          Density (g/cm3)  =   1.00438
                        Activity of water  =   0.979
                           Ionic strength  =   6.258e-01
                       Mass of water (kg)  =   1.000e+00
                 Total alkalinity (eq/kg)  =   1.155e-12
                    Total carbon (mol/kg)  =   0.000e+00
                       Total CO2 (mol/kg)  =   0.000e+00
                      Temperature (deg C)  =  65.00
                           Pressure (atm)  =  0.25
                  Electrical balance (eq)  =  -2.390e-11
 Percent error, 100*(Cat-|An|)/(Cat+|An|)  =  -0.00
                               Iterations  =  14
                                  Total H  = 1.110124e+02
                                  Total O  = 5.550622e+01

----------------------------Distribution of species----------------------------

                                               Log       Log       Log    mole V
   Species          Molality    Activity  Molality  Activity     Gamma   cm3/mol

   OH-             5.280e-07   3.135e-07    -6.277    -6.504    -0.226     -2.00
   H+              5.280e-07   3.924e-07    -6.277    -6.406    -0.129      0.00
   H2O             5.551e+01   9.787e-01     1.744    -0.009     0.000     18.37
Cl            6.258e-01
   Cl-             6.258e-01   3.797e-01    -0.204    -0.421    -0.217     18.89
H(0)          8.696e-33
   H2              4.348e-33   5.022e-33   -32.362   -32.299     0.063     28.58
Na            6.258e-01
   Na+             6.258e-01   4.281e-01    -0.204    -0.368    -0.165      0.57
   NaOH            1.162e-17   1.342e-17   -16.935   -16.872     0.063     (0)  
O(0)          6.606e-17
   O2              3.303e-17   3.815e-17   -16.481   -16.419     0.063     32.59

------------------------------Saturation indices-------------------------------

	Phase               SI   log IAP   log K(338 K,   0 atm)

	H2(g)           -29.16    -32.30   -3.14  H2
	H2O(g)           -0.62     -0.01    0.61  H2O
	Halite           -2.45     -0.79    1.66  NaCl
	O2(g)           -13.34    -16.42   -3.08  O2


Reaction step 9.

Using solution 1.	
Using temperature 1.	
Using pressure 1.	
Using reaction 1.	

Reaction 1.	

	  7.790e-01 moles of the following reaction have been added:

	                 Relative
	Reactant            moles

	NaCl                 1.00000

	                 Relative
	Element             moles
	Cl                   1.00000
	Na                   1.00000

-----------------------------Solution composition------------------------------

	Elements           Molality       Moles

	Cl                7.790e-01   7.790e-01
	Na                7.790e-01   7.790e-01

----------------------------Description of solution----------------------------

                                       pH  =   6.403      Charge balance
                                       pe  =   8.444      Adjusted to redox equilibrium
       Specific Conductance (uS/cm, 65 oC) = 134089
                          Density (g/cm3)  =   1.01002
                        Activity of water  =   0.974
                           Ionic strength  =   7.790e-01
                       Mass of water (kg)  =   1.000e+00
                 Total alkalinity (eq/kg)  =   1.556e-13
                    Total carbon (mol/kg)  =   0.000e+00
                       Total CO2 (mol/kg)  =   0.000e+00
                      Temperature (deg C)  =  65.00
                           Pressure (atm)  =  0.25
                  Electrical balance (eq)  =  -4.560e-09
 Percent error, 100*(Cat-|An|)/(Cat+|An|)  =  -0.00
                               Iterations  =   9
                                  Total H  = 1.110124e+02
                                  Total O  = 5.550622e+01

----------------------------Distribution of species----------------------------

                                               Log       Log       Log    mole V
   Species          Molality    Activity  Molality  Activity     Gamma   cm3/mol

   OH-             5.369e-07   3.095e-07    -6.270    -6.509    -0.239     -1.64
   H+              5.369e-07   3.953e-07    -6.270    -6.403    -0.133      0.00
   H2O             5.551e+01   9.735e-01     1.744    -0.012     0.000     18.37
Cl            7.790e-01
   Cl-             7.790e-01   4.613e-01    -0.108    -0.336    -0.228     18.99
H(0)          1.681e-33
   H2              8.406e-34   1.006e-33   -33.075   -32.997     0.078     28.58
Na            7.790e-01
   Na+             7.790e-01   5.332e-01    -0.108    -0.273    -0.165      0.63
   NaOH            1.379e-17   1.650e-17   -16.860   -16.782     0.078     (0)  
O(0)          1.573e-15
   O2              7.866e-16   9.411e-16   -15.104   -15.026     0.078     32.59

------------------------------Saturation indices-------------------------------

	Phase               SI   log IAP   log K(338 K,   0 atm)

	H2(g)           -29.86    -33.00   -3.14  H2
	H2O(g)           -0.62     -0.01    0.61  H2O
	Halite           -2.27     -0.61    1.66  NaCl
	O2(g)           -11.95    -15.03   -3.08  O2


Reaction step 10.

Using solution 1.	
Using temperature 1.	
Using pressure 1.	
Using reaction 1.	

Reaction 1.	

	  8.752e-01 moles of the following reaction have been added:

	                 Relative
	Reactant            moles

	NaCl                 1.00000

	                 Relative
	Element             moles
	Cl                   1.00000
	Na                   1.00000

-----------------------------Solution composition------------------------------

	Elements           Molality       Moles

	Cl                8.753e-01   8.752e-01
	Na                8.753e-01   8.752e-01

----------------------------Description of solution----------------------------

                                       pH  =   6.401      Charge balance
                                       pe  =   8.090      Adjusted to redox equilibrium
       Specific Conductance (uS/cm, 65 oC) = 146219
                          Density (g/cm3)  =   1.01352
                        Activity of water  =   0.970
                           Ionic strength  =   8.753e-01
                       Mass of water (kg)  =   1.000e+00
                 Total alkalinity (eq/kg)  =   1.565e-17
                    Total carbon (mol/kg)  =   0.000e+00
                       Total CO2 (mol/kg)  =   0.000e+00
                      Temperature (deg C)  =  65.00
                           Pressure (atm)  =  0.25
                  Electrical balance (eq)  =   5.986e-16
 Percent error, 100*(Cat-|An|)/(Cat+|An|)  =   0.00
                               Iterations  =   8
                                  Total H  = 1.110124e+02
                                  Total O  = 5.550622e+01

----------------------------Distribution of species----------------------------

                                               Log       Log       Log    mole V
   Species          Molality    Activity  Molality  Activity     Gamma   cm3/mol

   OH-             5.416e-07   3.073e-07    -6.266    -6.512    -0.246     -1.42
   H+              5.416e-07   3.968e-07    -6.266    -6.401    -0.135      0.00
   H2O             5.551e+01   9.702e-01     1.744    -0.013     0.000     18.37
Cl            8.753e-01
   Cl-             8.753e-01   5.119e-01    -0.058    -0.291    -0.233     19.05
H(0)          8.484e-33
   H2              4.242e-33   5.189e-33   -32.372   -32.285     0.088     28.58
Na            8.753e-01
   Na+             8.753e-01   6.009e-01    -0.058    -0.221    -0.163      0.66
   NaOH            1.509e-17   1.847e-17   -16.821   -16.734     0.088     (0)  
O(0)          5.742e-17
   O2              2.871e-17   3.512e-17   -16.542   -16.454     0.088     32.59

------------------------------Saturation indices-------------------------------

	Phase               SI   log IAP   log K(338 K,   0 atm)

	H2(g)           -29.15    -32.28   -3.14  H2
	H2O(g)           -0.62     -0.01    0.61  H2O
	Halite           -2.17     -0.51    1.66  NaCl
	O2(g)           -13.38    -16.45   -3.08  O2


Reaction step 11.

Using solution 1.	
Using temperature 1.	
Using pressure 1.	
Using reaction 1.	

Reaction 1.	

	  1.000e+00 moles of the following reaction have been added:

	                 Relative
	Reactant            moles

	NaCl                 1.00000

	                 Relative
	Element             moles
	Cl                   1.00000
	Na                   1.00000

-----------------------------Solution composition------------------------------

	Elements           Molality       Moles

	Cl                1.000e+00   1.000e+00
	Na                1.000e+00   1.000e+00

----------------------------Description of solution----------------------------

                                       pH  =   6.400      Charge balance
                                       pe  =   8.413      Adjusted to redox equilibrium
       Specific Conductance (uS/cm, 65 oC) = 161291
                          Density (g/cm3)  =   1.01803
                        Activity of water  =   0.966
                           Ionic strength  =   1.000e+00
                       Mass of water (kg)  =   1.000e+00
                 Total alkalinity (eq/kg)  =   3.556e-14
                    Total carbon (mol/kg)  =   0.000e+00
                       Total CO2 (mol/kg)  =   0.000e+00
                      Temperature (deg C)  =  65.00
                           Pressure (atm)  =  0.25
                  Electrical balance (eq)  =  -2.836e-12
 Percent error, 100*(Cat-|An|)/(Cat+|An|)  =  -0.00
                               Iterations  =   9
                                  Total H  = 1.110124e+02
                                  Total O  = 5.550622e+01

----------------------------Distribution of species----------------------------

                                               Log       Log       Log    mole V
   Species          Molality    Activity  Molality  Activity     Gamma   cm3/mol

   OH-             5.467e-07   3.047e-07    -6.262    -6.516    -0.254     -1.14
   H+              5.467e-07   3.985e-07    -6.262    -6.400    -0.137      0.00
   H2O             5.551e+01   9.660e-01     1.744    -0.015     0.000     18.37
Cl            1.000e+00
   Cl-             1.000e+00   5.769e-01     0.000    -0.239    -0.239     19.13
H(0)          1.874e-33
   H2              9.368e-34   1.179e-33   -33.028   -32.928     0.100     28.58
Na            1.000e+00
   Na+             1.000e+00   6.907e-01     0.000    -0.161    -0.161      0.70
   NaOH            1.672e-17   2.104e-17   -16.777   -16.677     0.100     (0)  
O(0)          1.071e-15
   O2              5.353e-16   6.739e-16   -15.271   -15.171     0.100     32.59

------------------------------Saturation indices-------------------------------

	Phase               SI   log IAP   log K(338 K,   0 atm)

	H2(g)           -29.79    -32.93   -3.14  H2
	H2O(g)           -0.63     -0.02    0.61  H2O
	Halite           -2.06     -0.40    1.66  NaCl
	O2(g)           -12.09    -15.17   -3.08  O2


Reaction step 12.

Using solution 1.	
Using temperature 1.	
Using pressure 1.	
Using reaction 1.	

Reaction 1.	

	  1.104e+00 moles of the following reaction have been added:

	                 Relative
	Reactant            moles

	NaCl                 1.00000

	                 Relative
	Element             moles
	Cl                   1.00000
	Na                   1.00000

-----------------------------Solution composition------------------------------

	Elements           Molality       Moles

	Cl                1.104e+00   1.104e+00
	Na                1.104e+00   1.104e+00

----------------------------Description of solution----------------------------

                                       pH  =   6.398      Charge balance
                                       pe  =   8.516      Adjusted to redox equilibrium
       Specific Conductance (uS/cm, 65 oC) = 173374
                          Density (g/cm3)  =   1.02174
                        Activity of water  =   0.962
                           Ionic strength  =   1.104e+00
                       Mass of water (kg)  =   1.000e+00
                 Total alkalinity (eq/kg)  =   9.381e-17
                    Total carbon (mol/kg)  =   0.000e+00
                       Total CO2 (mol/kg)  =   0.000e+00
                      Temperature (deg C)  =  65.00
                           Pressure (atm)  =  0.25
                  Electrical balance (eq)  =   6.727e-16
 Percent error, 100*(Cat-|An|)/(Cat+|An|)  =   0.00
                               Iterations  =  11
                                  Total H  = 1.110124e+02
                                  Total O  = 5.550622e+01

----------------------------Distribution of species----------------------------

                                               Log       Log       Log    mole V
   Species          Molality    Activity  Molality  Activity     Gamma   cm3/mol

   OH-             5.504e-07   3.027e-07    -6.259    -6.519    -0.260     -0.91
   H+              5.504e-07   3.996e-07    -6.259    -6.398    -0.139      0.00
   H2O             5.551e+01   9.625e-01     1.744    -0.017     0.000     18.37
Cl            1.104e+00
   Cl-             1.104e+00   6.306e-01     0.043    -0.200    -0.243     19.18
H(0)          1.147e-33
   H2              5.733e-34   7.392e-34   -33.242   -33.131     0.110     28.58
Na            1.104e+00
   Na+             1.104e+00   7.673e-01     0.043    -0.115    -0.158      0.73
   NaOH            1.801e-17   2.323e-17   -16.744   -16.634     0.110     (0)  
O(0)          2.642e-15
   O2              1.321e-15   1.703e-15   -14.879   -14.769     0.110     32.59

------------------------------Saturation indices-------------------------------

	Phase               SI   log IAP   log K(338 K,   0 atm)

	H2(g)           -29.99    -33.13   -3.14  H2
	H2O(g)           -0.63     -0.02    0.61  H2O
	Halite           -1.98     -0.32    1.66  NaCl
	O2(g)           -11.69    -14.77   -3.08  O2


Reaction step 13.

Using solution 1.	
Using temperature 1.	
Using pressure 1.	
Using reaction 1.	

Reaction 1.	

	  1.225e+00 moles of the following reaction have been added:

	                 Relative
	Reactant            moles

	NaCl                 1.00000

	                 Relative
	Element             moles
	Cl                   1.00000
	Na                   1.00000

-----------------------------Solution composition------------------------------

	Elements           Molality       Moles

	Cl                1.225e+00   1.225e+00
	Na                1.225e+00   1.225e+00

----------------------------Description of solution----------------------------

                                       pH  =   6.397      Charge balance
                                       pe  =   8.343      Adjusted to redox equilibrium
       Specific Conductance (uS/cm, 65 oC) = 187176
                          Density (g/cm3)  =   1.02606
                        Activity of water  =   0.958
                           Ionic strength  =   1.225e+00
                       Mass of water (kg)  =   1.000e+00
                 Total alkalinity (eq/kg)  =   2.835e-13
                    Total carbon (mol/kg)  =   0.000e+00
                       Total CO2 (mol/kg)  =   0.000e+00
                      Temperature (deg C)  =  65.00
                           Pressure (atm)  =  0.25
                  Electrical balance (eq)  =   5.534e-13
 Percent error, 100*(Cat-|An|)/(Cat+|An|)  =   0.00
                               Iterations  =  10
                                  Total H  = 1.110124e+02
                                  Total O  = 5.550622e+01

----------------------------Distribution of species----------------------------

                                               Log       Log       Log    mole V
   Species          Molality    Activity  Molality  Activity     Gamma   cm3/mol

   OH-             5.541e-07   3.005e-07    -6.256    -6.522    -0.266     -0.65
   H+              5.541e-07   4.008e-07    -6.256    -6.397    -0.141      0.00
   H2O             5.551e+01   9.583e-01     1.744    -0.018     0.000     18.37
Cl            1.225e+00
   Cl-             1.225e+00   6.934e-01     0.088    -0.159    -0.247     19.24
H(0)          2.484e-33
   H2              1.242e-33   1.647e-33   -32.906   -32.783     0.123     28.58
Na            1.225e+00
   Na+             1.225e+00   8.597e-01     0.088    -0.066    -0.154      0.77
   NaOH            1.948e-17   2.584e-17   -16.710   -16.588     0.123     (0)  
O(0)          5.129e-16
   O2              2.564e-16   3.400e-16   -15.591   -15.468     0.123     32.59

------------------------------Saturation indices-------------------------------

	Phase               SI   log IAP   log K(338 K,   0 atm)

	H2(g)           -29.65    -32.78   -3.14  H2
	H2O(g)           -0.63     -0.02    0.61  H2O
	Halite           -1.89     -0.22    1.66  NaCl
	O2(g)           -12.39    -15.47   -3.08  O2


Reaction step 14.

Using solution 1.	
Using temperature 1.	
Using pressure 1.	
Using reaction 1.	

Reaction 1.	

	  1.556e+00 moles of the following reaction have been added:

	                 Relative
	Reactant            moles

	NaCl                 1.00000

	                 Relative
	Element             moles
	Cl                   1.00000
	Na                   1.00000

-----------------------------Solution composition------------------------------

	Elements           Molality       Moles

	Cl                1.556e+00   1.556e+00
	Na                1.556e+00   1.556e+00

----------------------------Description of solution----------------------------

                                       pH  =   6.395      Charge balance
[...]
	Na                1.509e-02   1.509e-02

----------------------------Description of solution----------------------------

                                       pH  =   6.600      Charge balance
                                       pe  =  10.389      Adjusted to redox equilibrium
       Specific Conductance (uS/cm, 65 oC) = 3467
                          Density (g/cm3)  =   0.98135
                        Activity of water  =   0.999
                           Ionic strength  =   1.509e-02
                       Mass of water (kg)  =   1.000e+00
                 Total alkalinity (eq/kg)  =   2.913e-07
                    Total carbon (mol/kg)  =   0.000e+00
                       Total CO2 (mol/kg)  =   0.000e+00
                      Temperature (deg C)  =  65.00
                  Electrical balance (eq)  =  -4.119e-16
 Percent error, 100*(Cat-|An|)/(Cat+|An|)  =  -0.00
                               Iterations  =  20
                                  Total H  = 1.110124e+02
                                  Total O  = 5.555149e+01

----------------------------Distribution of species----------------------------

                                               Log       Log       Log    mole V
   Species          Molality    Activity  Molality  Activity     Gamma   cm3/mol

   OH-             5.729e-07   4.998e-07    -6.242    -6.301    -0.059     -3.86
   H+              2.816e-07   2.513e-07    -6.550    -6.600    -0.049      0.00
   H2O             5.551e+01   9.995e-01     1.744    -0.000     0.000     18.37
H(0)          1.045e-37
   H2              5.223e-38   5.241e-38   -37.282   -37.281     0.002     28.58
N(-3)         0.000e+00
   NH4+            0.000e+00   0.000e+00   -48.073   -48.135    -0.061     18.44
   NH3             0.000e+00   0.000e+00   -49.704   -49.703     0.002     24.85
N(0)          2.913e-07
   N2              1.456e-07   1.461e-07    -6.837    -6.835     0.002     29.29
N(3)          9.475e-12
   NO2-            9.475e-12   8.246e-12   -11.023   -11.084    -0.060     25.79
N(5)          1.509e-02
   NO3-            1.509e-02   1.313e-02    -1.821    -1.882    -0.060     31.04
Na            1.509e-02
   Na+             1.509e-02   1.323e-02    -1.821    -1.878    -0.057      0.05
   NaOH            6.591e-19   6.614e-19   -18.181   -18.180     0.002     (0)  
O(0)          7.282e-07
   O2              3.641e-07   3.654e-07    -6.439    -6.437     0.002     32.59

------------------------------Saturation indices-------------------------------

	Phase               SI   log IAP   log K(338 K,   1 atm)

	H2(g)           -34.14    -37.28   -3.14  H2
	H2O(g)           -0.61     -0.00    0.61  H2O
	N2(g)            -3.51     -6.84   -3.32  N2
	NH3(g)          -50.78    -49.70    1.08  NH3
	O2(g)            -3.36     -6.44   -3.08  O2


Reaction step 3.

Using solution 1.	
Using temperature 1.	
Using pressure 1.	
Using reaction 1.	

Reaction 1.	

	  3.017e-02 moles of the following reaction have been added:

	                 Relative
	Reactant            moles

	NaNO3                1.00000

	                 Relative
	Element             moles
	N                    1.00000
	Na                   1.00000
	O                    3.00000

-----------------------------Solution composition------------------------------

	Elements           Molality       Moles

	N                 3.017e-02   3.017e-02
	Na                3.017e-02   3.017e-02

----------------------------Description of solution----------------------------

                                       pH  =   6.642      Charge balance
                                       pe  =  10.382      Adjusted to redox equilibrium
       Specific Conductance (uS/cm, 65 oC) = 6743
                          Density (g/cm3)  =   0.98215
                        Activity of water  =   0.999
                           Ionic strength  =   3.017e-02
                       Mass of water (kg)  =   1.000e+00
                 Total alkalinity (eq/kg)  =   3.969e-07
                    Total carbon (mol/kg)  =   0.000e+00
                       Total CO2 (mol/kg)  =   0.000e+00
                      Temperature (deg C)  =  65.00
                  Electrical balance (eq)  =  -7.052e-14
 Percent error, 100*(Cat-|An|)/(Cat+|An|)  =  -0.00
                               Iterations  =  18
                                  Total H  = 1.110124e+02
                                  Total O  = 5.559673e+01

----------------------------Distribution of species----------------------------

                                               Log       Log       Log    mole V
   Species          Molality    Activity  Molality  Activity     Gamma   cm3/mol

   OH-             6.608e-07   5.501e-07    -6.180    -6.260    -0.080     -3.77
   H+              2.638e-07   2.282e-07    -6.579    -6.642    -0.063      0.00
   H2O             5.551e+01   9.990e-01     1.744    -0.000     0.000     18.37
H(0)          8.896e-38
   H2              4.448e-38   4.479e-38   -37.352   -37.349     0.003     28.58
N(-3)         0.000e+00
   NH4+            0.000e+00   0.000e+00   -48.127   -48.211    -0.084     18.49
   NH3             0.000e+00   0.000e+00   -49.740   -49.737     0.003     24.85
N(0)          3.970e-07
   N2              1.985e-07   1.999e-07    -6.702    -6.699     0.003     29.29
N(3)          1.620e-11
   NO2-            1.620e-11   1.342e-11   -10.790   -10.872    -0.082     25.86
N(5)          3.017e-02
   NO3-            3.017e-02   2.500e-02    -1.520    -1.602    -0.082     31.10
Na            3.017e-02
   Na+             3.017e-02   2.536e-02    -1.520    -1.596    -0.075      0.10
   NaOH            1.385e-18   1.395e-18   -17.859   -17.855     0.003     (0)  
O(0)          9.924e-07
   O2              4.962e-07   4.997e-07    -6.304    -6.301     0.003     32.59

------------------------------Saturation indices-------------------------------

	Phase               SI   log IAP   log K(338 K,   1 atm)

	H2(g)           -34.21    -37.35   -3.14  H2
	H2O(g)           -0.61     -0.00    0.61  H2O
	N2(g)            -3.38     -6.70   -3.32  N2
	NH3(g)          -50.82    -49.74    1.08  NH3
	O2(g)            -3.22     -6.30   -3.08  O2


Reaction step 4.

Using solution 1.	
Using temperature 1.	
Using pressure 1.	
Using reaction 1.	

Reaction 1.	

	  6.039e-02 moles of the following reaction have been added:

	                 Relative
	Reactant            moles

	NaNO3                1.00000

	                 Relative
	Element             moles
	N                    1.00000
	Na                   1.00000
	O                    3.00000

-----------------------------Solution composition------------------------------

	Elements           Molality       Moles

	N                 6.039e-02   6.039e-02
	Na                6.039e-02   6.039e-02

----------------------------Description of solution----------------------------

                                       pH  =   6.687      Charge balance
                                       pe  =  10.369      Adjusted to redox equilibrium
       Specific Conductance (uS/cm, 65 oC) = 13039
                          Density (g/cm3)  =   0.98375
                        Activity of water  =   0.998
                           Ionic strength  =   6.039e-02
                       Mass of water (kg)  =   1.000e+00
                 Total alkalinity (eq/kg)  =   5.325e-07
                    Total carbon (mol/kg)  =   0.000e+00
                       Total CO2 (mol/kg)  =   0.000e+00
                      Temperature (deg C)  =  65.00
                  Electrical balance (eq)  =  -2.879e-12
 Percent error, 100*(Cat-|An|)/(Cat+|An|)  =  -0.00
                               Iterations  =  18
                                  Total H  = 1.110124e+02
                                  Total O  = 5.568739e+01

----------------------------Distribution of species----------------------------

                                               Log       Log       Log    mole V
   Species          Molality    Activity  Molality  Activity     Gamma   cm3/mol

   OH-             7.782e-07   6.107e-07    -6.109    -6.214    -0.105     -3.62
   H+              2.457e-07   2.054e-07    -6.610    -6.687    -0.078      0.00
   H2O             5.551e+01   9.979e-01     1.744    -0.001     0.000     18.37
H(0)          7.593e-38
   H2              3.797e-38   3.850e-38   -37.421   -37.415     0.006     28.58
N(-3)         0.000e+00
   NH4+            0.000e+00   0.000e+00   -48.177   -48.290    -0.112     18.55
   NH3             0.000e+00   0.000e+00   -49.777   -49.770     0.006     24.85
N(0)          5.326e-07
   N2              2.663e-07   2.700e-07    -6.575    -6.569     0.006     29.29
N(3)          2.790e-11
   NO2-            2.790e-11   2.172e-11   -10.554   -10.663    -0.109     25.96
N(5)          6.039e-02
   NO3-            6.039e-02   4.701e-02    -1.219    -1.328    -0.109     31.20
Na            6.039e-02
   Na+             6.039e-02   4.825e-02    -1.219    -1.317    -0.097      0.17
   NaOH            2.906e-18   2.947e-18   -17.537   -17.531     0.006     (0)  
O(0)          1.331e-06
   O2              6.656e-07   6.750e-07    -6.177    -6.171     0.006     32.59

------------------------------Saturation indices-------------------------------

	Phase               SI   log IAP   log K(338 K,   1 atm)

	H2(g)           -34.28    -37.41   -3.14  H2
	H2O(g)           -0.61     -0.00    0.61  H2O
	N2(g)            -3.24     -6.57   -3.32  N2
	NH3(g)          -50.85    -49.77    1.08  NH3
	O2(g)            -3.09     -6.17   -3.08  O2


Reaction step 5.

Using solution 1.	
Using temperature 1.	
Using pressure 1.	
Using reaction 1.	

Reaction 1.	

	  1.208e-01 moles of the following reaction have been added:

	                 Relative
	Reactant            moles

	NaNO3                1.00000

	                 Relative
	Element             moles
	N                    1.00000
	Na                   1.00000
	O                    3.00000

-----------------------------Solution composition------------------------------

	Elements           Molality       Moles

	N                 1.208e-01   1.208e-01
	Na                1.208e-01   1.208e-01

----------------------------Description of solution----------------------------

                                       pH  =   6.735      Charge balance
                                       pe  =  10.353      Adjusted to redox equilibrium
       Specific Conductance (uS/cm, 65 oC) = 25035
                          Density (g/cm3)  =   0.98692
                        Activity of water  =   0.996
                           Ionic strength  =   1.208e-01
                       Mass of water (kg)  =   1.000e+00
                 Total alkalinity (eq/kg)  =   7.021e-07
                    Total carbon (mol/kg)  =   0.000e+00
                       Total CO2 (mol/kg)  =   0.000e+00
                      Temperature (deg C)  =  65.00
                  Electrical balance (eq)  =  -3.441e-14
 Percent error, 100*(Cat-|An|)/(Cat+|An|)  =  -0.00
                               Iterations  =  19
                                  Total H  = 1.110124e+02
                                  Total O  = 5.586859e+01

----------------------------Distribution of species----------------------------

                                               Log       Log       Log    mole V
   Species          Molality    Activity  Molality  Activity     Gamma   cm3/mol

   OH-             9.304e-07   6.799e-07    -6.031    -6.168    -0.136     -3.39
   H+              2.284e-07   1.841e-07    -6.641    -6.735    -0.094      0.00
   H2O             5.551e+01   9.959e-01     1.744    -0.002     0.000     18.37
H(0)          6.463e-38
   H2              3.232e-38   3.323e-38   -37.491   -37.478     0.012     28.58
N(-3)         0.000e+00
   NH4+            0.000e+00   0.000e+00   -48.222   -48.370    -0.149     18.62
   NH3             0.000e+00   0.000e+00   -49.815   -49.803     0.012     24.85
N(0)          7.021e-07
   N2              3.510e-07   3.609e-07    -6.455    -6.443     0.012     29.29
N(3)          4.826e-11
   NO2-            4.826e-11   3.479e-11   -10.316   -10.458    -0.142     26.10
N(5)          1.208e-01
   NO3-            1.208e-01   8.708e-02    -0.918    -1.060    -0.142     31.33
Na            1.208e-01
   Na+             1.208e-01   9.126e-02    -0.918    -1.040    -0.122      0.26
   NaOH            6.035e-18   6.205e-18   -17.219   -17.207     0.012     (0)  
O(0)          1.755e-06
   O2              8.776e-07   9.024e-07    -6.057    -6.045     0.012     32.59

------------------------------Saturation indices-------------------------------

	Phase               SI   log IAP   log K(338 K,   1 atm)

	H2(g)           -34.34    -37.48   -3.14  H2
	H2O(g)           -0.61     -0.00    0.61  H2O
	N2(g)            -3.12     -6.44   -3.32  N2
	NH3(g)          -50.88    -49.80    1.08  NH3
	O2(g)            -2.97     -6.04   -3.08  O2


Reaction step 6.

Using solution 1.	
Using temperature 1.	
Using pressure 1.	
Using reaction 1.	

Reaction 1.	

	  2.514e-01 moles of the following reaction have been added:

	                 Relative
	Reactant            moles

	NaNO3                1.00000

	                 Relative
	Element             moles
	N                    1.00000
	Na                   1.00000
	O                    3.00000

-----------------------------Solution composition------------------------------

	Elements           Molality       Moles

	N                 2.514e-01   2.514e-01
	Na                2.514e-01   2.514e-01

----------------------------Description of solution----------------------------

                                       pH  =   6.784      Charge balance
                                       pe  =  10.338      Adjusted to redox equilibrium
       Specific Conductance (uS/cm, 65 oC) = 49670
                          Density (g/cm3)  =   0.99368
                        Activity of water  =   0.991
                           Ionic strength  =   2.514e-01
                       Mass of water (kg)  =   1.000e+00
                 Total alkalinity (eq/kg)  =   9.200e-07
                    Total carbon (mol/kg)  =   0.000e+00
                       Total CO2 (mol/kg)  =   0.000e+00
                      Temperature (deg C)  =  65.00
                  Electrical balance (eq)  =  -2.781e-12
 Percent error, 100*(Cat-|An|)/(Cat+|An|)  =  -0.00
                               Iterations  =  19
                                  Total H  = 1.110124e+02
                                  Total O  = 5.626042e+01

----------------------------Distribution of species----------------------------

                                               Log       Log       Log    mole V
   Species          Molality    Activity  Molality  Activity     Gamma   cm3/mol

   OH-             1.132e-06   7.579e-07    -5.946    -6.120    -0.174     -2.98
   H+              2.119e-07   1.644e-07    -6.674    -6.784    -0.110      0.00
   H2O             5.551e+01   9.915e-01     1.744    -0.004     0.000     18.37
H(0)          5.373e-38
   H2              2.686e-38   2.847e-38   -37.571   -37.546     0.025     28.58
N(-3)         0.000e+00
   NH4+            0.000e+00   0.000e+00   -48.260   -48.455    -0.195     18.71
   NH3             0.000e+00   0.000e+00   -49.864   -49.839     0.025     24.85
N(0)          9.201e-07
   N2              4.601e-07   4.875e-07    -6.337    -6.312     0.025     29.29
N(3)          8.644e-11
   NO2-            8.644e-11   5.659e-11   -10.063   -10.247    -0.184     26.32
N(5)          2.514e-01
   NO3-            2.514e-01   1.646e-01    -0.600    -0.784    -0.184     31.53
Na            2.514e-01
   Na+             2.514e-01   1.794e-01    -0.600    -0.746    -0.147      0.37
   NaOH            1.283e-17   1.360e-17   -16.892   -16.867     0.025     (0)  
O(0)          2.300e-06
   O2              1.150e-06   1.219e-06    -5.939    -5.914     0.025     32.59

------------------------------Saturation indices-------------------------------

	Phase               SI   log IAP   log K(338 K,   1 atm)

	H2(g)           -34.41    -37.55   -3.14  H2
	H2O(g)           -0.61     -0.00    0.61  H2O
	N2(g)            -2.99     -6.31   -3.32  N2
	NH3(g)          -50.92    -49.84    1.08  NH3
	O2(g)            -2.84     -5.91   -3.08  O2


Reaction step 7.

Using solution 1.	
Using temperature 1.	
Using pressure 1.	
Using reaction 1.	

Reaction 1.	

	  5.010e-01 moles of the following reaction have been added:

	                 Relative
	Reactant            moles

	NaNO3                1.00000

	                 Relative
	Element             moles
	N                    1.00000
	Na                   1.00000
	O                    3.00000

-----------------------------Solution composition------------------------------

	Elements           Molality       Moles

	N                 5.010e-01   5.010e-01
	Na                5.010e-01   5.010e-01

----------------------------Description of solution----------------------------

                                       pH  =   6.826      Charge balance
                                       pe  =  10.328      Adjusted to redox equilibrium
       Specific Conductance (uS/cm, 65 oC) = 90097
                          Density (g/cm3)  =   1.00633
                        Activity of water  =   0.983
                           Ionic strength  =   5.010e-01
                       Mass of water (kg)  =   1.000e+00
                 Total alkalinity (eq/kg)  =   1.153e-06
                    Total carbon (mol/kg)  =   0.000e+00
                       Total CO2 (mol/kg)  =   0.000e+00
                      Temperature (deg C)  =  65.00
                  Electrical balance (eq)  =  -2.807e-11
 Percent error, 100*(Cat-|An|)/(Cat+|An|)  =  -0.00
                               Iterations  =   9
                                  Total H  = 1.110124e+02
                                  Total O  = 5.700922e+01

----------------------------Distribution of species----------------------------

                                               Log       Log       Log    mole V
   Species          Molality    Activity  Molality  Activity     Gamma   cm3/mol

   OH-             1.352e-06   8.272e-07    -5.869    -6.082    -0.213     -2.31
   H+              1.989e-07   1.493e-07    -6.701    -6.826    -0.125      0.00
   H2O             5.551e+01   9.830e-01     1.744    -0.007     0.000     18.37
H(0)          4.365e-38
   H2              2.183e-38   2.449e-38   -37.661   -37.611     0.050     28.58
N(-3)         0.000e+00
   NH4+            0.000e+00   0.000e+00   -48.288   -48.533    -0.245     18.80
   NH3             0.000e+00   0.000e+00   -49.925   -49.875     0.050     24.85
N(0)          1.154e-06
   N2              5.768e-07   6.474e-07    -6.239    -6.189     0.050     29.29
N(3)          1.495e-10
   NO2-            1.495e-10   8.841e-11    -9.825   -10.053    -0.228     26.60
N(5)          5.010e-01
   NO3-            5.010e-01   2.963e-01    -0.300    -0.528    -0.228     31.78
Na            5.010e-01
   Na+             5.010e-01   3.444e-01    -0.300    -0.463    -0.163      0.52
   NaOH            2.538e-17   2.849e-17   -16.595   -16.545     0.050     (0)  
O(0)          2.883e-06
   O2              1.441e-06   1.618e-06    -5.841    -5.791     0.050     32.59

------------------------------Saturation indices-------------------------------

	Phase               SI   log IAP   log K(338 K,   1 atm)

	H2(g)           -34.47    -37.61   -3.14  H2
	H2O(g)           -0.62     -0.01    0.61  H2O
	N2(g)            -2.86     -6.19   -3.32  N2
	NH3(g)          -50.95    -49.88    1.08  NH3
	O2(g)            -2.71     -5.79   -3.08  O2


------------------
End of simulation.
------------------

-------------------------------------
Reading input data for simulation 10.
-------------------------------------

------------------------------
End of Run after 0.09 Seconds.
------------------------------

