   Input file: Vm_salt_fig
  Output file: Vm_salt_fig.out
Database file: ../database/phreeqc.dat

------------------
Reading data base.
------------------

	SOLUTION_MASTER_SPECIES
	SOLUTION_SPECIES
	PHASES
	EXCHANGE_MASTER_SPECIES
	EXCHANGE_SPECIES
	SURFACE_MASTER_SPECIES
	SURFACE_SPECIES
	RATES
	END
------------------------------------
Reading input data for simulation 1.
------------------------------------

	DATABASE ../database/phreeqc.dat
	SOLUTION 1
	 pH 7 charge
	END
-------------------------------------------
Beginning of initial solution calculations.
-------------------------------------------

Initial solution 1.	

-----------------------------Solution composition------------------------------

	Elements           Molality       Moles

	Pure water     

----------------------------Description of solution----------------------------

                                       pH  =   7.000      Charge balance
                                       pe  =   4.000    
       Specific Conductance (uS/cm, 25 oC) = 0
                          Density (g/cm3)  =   0.99704
                        Activity of water  =   1.000
                           Ionic strength  =  1.001e-007
                       Mass of water (kg)  =  1.000e+000
                 Total alkalinity (eq/kg)  =  6.310e-018
                    Total carbon (mol/kg)  =  0.000e+000
                       Total CO2 (mol/kg)  =  0.000e+000
                      Temperature (deg C)  =  25.00
                  Electrical balance (eq)  = -6.310e-018
 Percent error, 100*(Cat-|An|)/(Cat+|An|)  =  -0.00
                               Iterations  =   2
                                  Total H  = 1.110124e+002
                                  Total O  = 5.550622e+001

----------------------------Distribution of species----------------------------

                                               Log       Log       Log    mole V
   Species          Molality    Activity  Molality  Activity     Gamma   cm3/mol

   OH-            1.001e-007  1.001e-007    -6.999    -7.000    -0.000     -4.11
   H+             1.001e-007  1.001e-007    -6.999    -7.000    -0.000      0.00
   H2O            5.551e+001  1.000e+000     1.744    -0.000     0.000     18.07
H(0)         1.419e-025
   H2             7.095e-026  7.095e-026   -25.149   -25.149     0.000     28.61
O(0)         0.000e+000
   O2             0.000e+000  0.000e+000   -42.082   -42.082     0.000     30.40

------------------------------Saturation indices-------------------------------

	Phase               SI   log IAP   log K(298 K,   1 atm)

	H2(g)           -22.05    -25.15   -3.10  H2
	H2O(g)           -1.50     -0.00    1.50  H2O
	O2(g)           -39.19    -42.08   -2.89  O2


------------------
End of simulation.
------------------

------------------------------------
Reading input data for simulation 2.
------------------------------------

	USE solution 1
	REACTION_TEMPERATURE
	 25.000000
	REACTION_PRESSURE
	 1.000000
	REACTION
	 HCl 1
	0 0.003345556 0.003509761 0.005804099 0.008152915  0.010050 0.010902557 0.019919104 0.020320 0.020722728 0.02917534 0.030010 0.039640309 0.040000 0.050500 0.057650 0.06183938 0.075390 0.079690 0.079931544 0.090713565 
	0.098980 0.100100 0.115900 0.124000 0.125650 0.138200 0.148360 0.148800 0.152170 0.198440 0.201350 0.217600 0.221790 0.230300 0.256600 0.258580 0.305100 0.317000 0.343670 0.376200 0.378892 0.378799 0.378888 0.400010 0.498090 0.564460 0.596830 0.608000 0.613160 0.634710 0.633689 0.696000 0.697270 0.793200 0.799170 0.892377 0.898500 0.900260 0.968600 0.968790 1.022200 1.154549 1.203100 1.276120 1.483900 1.618400 1.851100 1.954635 1.962320 2.095800 2.114800 2.195000 2.226783 2.264800 2.395500 2.457900 2.520000 2.764100 2.957400 3.014700 3.060917 3.191000 3.345673 3.852700 4.216778 4.216452 4.512961 4.631400 4.813464 4.813347 4.912400 5.116893 5.116862 5.316000 5.424050 5.423779 5.734175 5.734149 6.006400 6.048032 6.365700 6.625300 6.713663 6.734294 6.836000 6.963957 7.041466 7.372793 7.616000 7.708123 8.047887 8.391121 8.447000 8.739741 9.092376 9.294900 9.448106 9.810296
	USER_GRAPH
	 -headings HCl
	-axis_titles "(Ionic Strength)^0.5 / (mol/kg H2O)^0.5" "molar volume / (cm3/mol)"
	-axis_scale x_axis 0 3
	-axis_scale y_axis 16 30
	10 data 0, 18.03, 17.947, 17.955, 18.019, 18.003401, 18.053, 18.089, 18.151590, 18.104, 18.1, 18.144103, 18.128, 18.147104, 18.260570, 18.193491, 18.172, 18.291331, 18.251638, 18.221, 18.226, 18.293496, 18.360171, 18.172784, 18.401682, 18.425164, 18.400000, 18.375462, 18.421767, 18.420000, 18.441524, 18.551196, 18.351572, 18.520000, 18.528130, 18.509595, 18.540000, 18.580000, 18.569794, 18.630000, 18.620087, 18.644680, 18.706760, 18.620617, 18.639675, 18.709022, 18.752466, 18.771139, 18.739918, 18.796572, 18.809065, 18.800181, 18.824530, 18.848829, 18.872334, 18.907554, 18.920422, 18.929376, 18.966125, 18.966871, 18.949297, 18.997995, 19.038362, 19.041280, 19.127097, 19.158526, 19.205842, 19.278155, 19.266918, 19.279682, 19.347808, 19.347989, 19.369001, 19.338937, 19.385524, 19.408502, 19.421342, 19.382531, 19.461480, 19.475456, 19.547519, 19.560486, 19.604451, 19.618635, 19.722417, 19.824761, 19.823639, 19.863619, 19.868453, 19.915521, 19.922431, 19.912622, 19.978912, 19.972591, 20.022080, 20.004175, 20.065494, 20.064079, 20.049594, 20.081165, 20.113426, 20.155812, 20.162891, 20.205003, 20.202267, 20.233798, 20.229769, 20.244985, 20.285265, 20.285097, 20.325116, 20.361456, 20.402034, 20.376488, 20.436253, 20.473638, 20.464062, 20.509998, 20.547910,
	20 dim d(119)
	30 read d(1), d(2), d(3), d(4), d(5), d(6), d(7), d(8), d(9), d(10), d(11), d(12), d(13), d(14), d(15), d(16), d(17), d(18), d(19), d(20), d(21), d(22), d(23), d(24), d(25), d(26), d(27), d(28), d(29), d(30), d(31), d(32), d(33), d(34), d(35), d(36), d(37), d(38), d(39), d(40), d(41), d(42), d(43), d(44), d(45), d(46), d(47), d(48), d(49), d(50), d(51), d(52), d(53), d(54), d(55), d(56), d(57), d(58), d(59), d(60), d(61), d(62), d(63), d(64), d(65), d(66), d(67), d(68), d(69), d(70), d(71), d(72), d(73), d(74), d(75), d(76), d(77), d(78), d(79), d(80), d(81), d(82), d(83), d(84), d(85), d(86), d(87), d(88), d(89), d(90), d(91), d(92), d(93), d(94), d(95), d(96), d(97), d(98), d(99), d(100), d(101), d(102), d(103), d(104), d(105), d(106), d(107), d(108), d(109), d(110), d(111), d(112), d(113), d(114), d(115), d(116), d(117), d(118), d(119)
	40 if step_no = 1 then put(rho, 10)
	50 if step_no > 1 then Vmol = (1e3 + tot("Cl") * 36.461) / (tot("Cl") * rho) - 1e3 / (tot("Cl") * get(10))
	52 if step_no > 1 then Vmol = Vm("Cl-")
	60 if step_no = 1 then dif = 0 else dif = Vmol - d(step_no)
	62 if tot("Cl") > 10 or tc > 200 then goto 150
	100 if step_no = 1 then goto 150
	102 Vmol = Vm("Cl-")
	110 plot_xy mu^0.5, d(step_no), symbol = Triangle, line_w = 0, color = Blue
	120 plot_xy mu^0.5, Vmol, symbol = None, color = Blue, line_width = 2
	122 if step_no > 3 then goto 150
	130 V0 = 17.83
	134 if step_no = 2 then plot_xy 0, V0, symbol = None, color = Blue, line_width = 2 else                        plot_xy 1, V0 + DH_Av * 1 * 1, symbol = None, color = Blue, line_width = 1
	150 end
	END
-----------------------------------------
Beginning of batch-reaction calculations.
-----------------------------------------

Reaction step 1.

Using solution 1.	
Using temperature 1.	
Using pressure 1.	
Using reaction 1.	

Reaction 1.	

	 0.000e+000 moles of the following reaction have been added:

	                 Relative
	Reactant            moles

	HCl                  1.00000

	                 Relative
	Element             moles
	Cl                   1.00000
	H                    1.00000

-----------------------------Solution composition------------------------------

	Elements           Molality       Moles

	Pure water     

----------------------------Description of solution----------------------------

                                       pH  =   7.000      Charge balance
                                       pe  =   0.176      Adjusted to redox equilibrium
       Specific Conductance (uS/cm, 25 oC) = 0
                          Density (g/cm3)  =   0.99704
                        Activity of water  =   1.000
                           Ionic strength  =  1.001e-007
                       Mass of water (kg)  =  1.000e+000
                 Total alkalinity (eq/kg)  =  3.856e-016
                    Total carbon (mol/kg)  =  0.000e+000
                       Total CO2 (mol/kg)  =  0.000e+000
                      Temperature (deg C)  =  25.00
                  Electrical balance (eq)  = -3.856e-016
 Percent error, 100*(Cat-|An|)/(Cat+|An|)  =  -0.00
                               Iterations  =   8
                                  Total H  = 1.110124e+002
                                  Total O  = 5.550622e+001

----------------------------Distribution of species----------------------------

                                               Log       Log       Log    mole V
   Species          Molality    Activity  Molality  Activity     Gamma   cm3/mol

   OH-            1.001e-007  1.001e-007    -6.999    -7.000    -0.000     -4.11
   H+             1.001e-007  1.001e-007    -6.999    -7.000    -0.000      0.00
   H2O            5.551e+001  1.000e+000     1.744     0.000     0.000     18.07
H(0)         6.310e-018
   H2             3.155e-018  3.155e-018   -17.501   -17.501     0.000     28.61
O(0)         0.000e+000
   O2             0.000e+000  0.000e+000   -57.378   -57.378     0.000     30.40

------------------------------Saturation indices-------------------------------

	Phase               SI   log IAP   log K(298 K,   1 atm)

	H2(g)           -14.40    -17.50   -3.10  H2
	H2O(g)           -1.50      0.00    1.50  H2O
	O2(g)           -54.49    -57.38   -2.89  O2


Reaction step 2.

Using solution 1.	
Using temperature 1.	
Using pressure 1.	
Using reaction 1.	

Reaction 1.	

	 3.346e-003 moles of the following reaction have been added:

	                 Relative
	Reactant            moles

	HCl                  1.00000

	                 Relative
	Element             moles
	Cl                   1.00000
	H                    1.00000

-----------------------------Solution composition------------------------------

	Elements           Molality       Moles

	Cl               3.346e-003  3.346e-003

----------------------------Description of solution----------------------------

                                       pH  =   2.501      Charge balance
                                       pe  =  15.078      Adjusted to redox equilibrium
       Specific Conductance (uS/cm, 25 oC) = 1375
                          Density (g/cm3)  =   0.99710
                        Activity of water  =   1.000
                           Ionic strength  =  3.346e-003
                       Mass of water (kg)  =  1.000e+000
                 Total alkalinity (eq/kg)  = -3.346e-003
                    Total carbon (mol/kg)  =  0.000e+000
                       Total CO2 (mol/kg)  =  0.000e+000
                      Temperature (deg C)  =  25.00
                  Electrical balance (eq)  =  2.244e-011
 Percent error, 100*(Cat-|An|)/(Cat+|An|)  =   0.00
                               Iterations  =  13
                                  Total H  = 1.110158e+002
                                  Total O  = 5.550622e+001

----------------------------Distribution of species----------------------------

                                               Log       Log       Log    mole V
   Species          Molality    Activity  Molality  Activity     Gamma   cm3/mol

   H+             3.346e-003  3.157e-003    -2.476    -2.501    -0.025      0.00
   OH-            3.383e-012  3.174e-012   -11.471   -11.498    -0.028     -4.05
   H2O            5.551e+001  9.999e-001     1.744    -0.000     0.000     18.07
Cl           3.346e-003
   Cl-            3.346e-003  3.139e-003    -2.476    -2.503    -0.028     18.09
H(0)         9.833e-039
   H2             4.916e-039  4.920e-039   -38.308   -38.308     0.000     28.61
O(0)         3.441e-016
   O2             1.720e-016  1.722e-016   -15.764   -15.764     0.000     30.40

------------------------------Saturation indices-------------------------------

	Phase               SI   log IAP   log K(298 K,   1 atm)

	H2(g)           -35.21    -38.31   -3.10  H2
	H2O(g)           -1.50     -0.00    1.50  H2O
	O2(g)           -12.87    -15.76   -2.89  O2


Reaction step 3.

Using solution 1.	
Using temperature 1.	
Using pressure 1.	
Using reaction 1.	

Reaction 1.	

	 3.510e-003 moles of the following reaction have been added:

	                 Relative
	Reactant            moles

	HCl                  1.00000

	                 Relative
	Element             moles
	Cl                   1.00000
	H                    1.00000

-----------------------------Solution composition------------------------------

	Elements           Molality       Moles

	Cl               3.510e-003  3.510e-003

----------------------------Description of solution----------------------------

                                       pH  =   2.480      Charge balance
                                       pe  =   3.313      Adjusted to redox equilibrium
       Specific Conductance (uS/cm, 25 oC) = 1441
                          Density (g/cm3)  =   0.99711
                        Activity of water  =   1.000
                           Ionic strength  =  3.510e-003
                       Mass of water (kg)  =  1.000e+000
                 Total alkalinity (eq/kg)  = -3.510e-003
                    Total carbon (mol/kg)  =  0.000e+000
                       Total CO2 (mol/kg)  =  0.000e+000
                      Temperature (deg C)  =  25.00
                  Electrical balance (eq)  =  5.866e-018
 Percent error, 100*(Cat-|An|)/(Cat+|An|)  =   0.00
                               Iterations  =  10
                                  Total H  = 1.110159e+002
                                  Total O  = 5.550622e+001

----------------------------Distribution of species----------------------------

                                               Log       Log       Log    mole V
   Species          Molality    Activity  Molality  Activity     Gamma   cm3/mol

   H+             3.510e-003  3.308e-003    -2.455    -2.480    -0.026      0.00
   OH-            3.233e-012  3.029e-012   -11.490   -11.519    -0.028     -4.05
   H2O            5.551e+001  9.999e-001     1.744    -0.000     0.000     18.07
Cl           3.510e-003
   Cl-            3.510e-003  3.289e-003    -2.455    -2.483    -0.028     18.09
H(0)         3.670e-015
   H2             1.835e-015  1.836e-015   -14.736   -14.736     0.000     28.61
O(0)         0.000e+000
   O2             0.000e+000  0.000e+000   -62.908   -62.908     0.000     30.40

------------------------------Saturation indices-------------------------------

	Phase               SI   log IAP   log K(298 K,   1 atm)

	H2(g)           -11.63    -14.74   -3.10  H2
	H2O(g)           -1.50     -0.00    1.50  H2O
	O2(g)           -60.02    -62.91   -2.89  O2


Reaction step 4.

Using solution 1.	
Using temperature 1.	
Using pressure 1.	
Using reaction 1.	

Reaction 1.	

	 5.804e-003 moles of the following reaction have been added:

	                 Relative
	Reactant            moles

	HCl                  1.00000

	                 Relative
	Element             moles
	Cl                   1.00000
	H                    1.00000

-----------------------------Solution composition------------------------------

	Elements           Molality       Moles

	Cl               5.804e-003  5.804e-003

----------------------------Description of solution----------------------------

                                       pH  =   2.268      Charge balance
                                       pe  =   2.937      Adjusted to redox equilibrium
       Specific Conductance (uS/cm, 25 oC) = 2363
                          Density (g/cm3)  =   0.99715
                        Activity of water  =   1.000
                           Ionic strength  =  5.804e-003
                       Mass of water (kg)  =  1.000e+000
                 Total alkalinity (eq/kg)  = -5.804e-003
                    Total carbon (mol/kg)  =  0.000e+000
                       Total CO2 (mol/kg)  =  0.000e+000
                      Temperature (deg C)  =  25.00
                  Electrical balance (eq)  = -7.130e-018
 Percent error, 100*(Cat-|An|)/(Cat+|An|)  =  -0.00
                               Iterations  =  13
                                  Total H  = 1.110182e+002
                                  Total O  = 5.550622e+001

----------------------------Distribution of species----------------------------

                                               Log       Log       Log    mole V
   Species          Molality    Activity  Molality  Activity     Gamma   cm3/mol

   H+             5.804e-003  5.395e-003    -2.236    -2.268    -0.032      0.00
   OH-            2.016e-012  1.857e-012   -11.695   -11.731    -0.036     -4.03
   H2O            5.551e+001  9.998e-001     1.744    -0.000     0.000     18.07
Cl           5.804e-003
   Cl-            5.804e-003  5.347e-003    -2.236    -2.272    -0.036     18.11
H(0)         5.509e-014
   H2             2.754e-014  2.758e-014   -13.560   -13.559     0.001     28.61
O(0)         0.000e+000
   O2             0.000e+000  0.000e+000   -65.262   -65.261     0.001     30.40

------------------------------Saturation indices-------------------------------

	Phase               SI   log IAP   log K(298 K,   1 atm)

	H2(g)           -10.46    -13.56   -3.10  H2
	H2O(g)           -1.50     -0.00    1.50  H2O
	O2(g)           -62.37    -65.26   -2.89  O2


Reaction step 5.

Using solution 1.	
Using temperature 1.	
Using pressure 1.	
Using reaction 1.	

Reaction 1.	

	 8.153e-003 moles of the following reaction have been added:

	                 Relative
	Reactant            moles

	HCl                  1.00000

	                 Relative
	Element             moles
	Cl                   1.00000
	H                    1.00000

-----------------------------Solution composition------------------------------

	Elements           Molality       Moles

	Cl               8.153e-003  8.153e-003

----------------------------Description of solution----------------------------

                                       pH  =   2.125      Charge balance
                                       pe  =  15.628      Adjusted to redox equilibrium
       Specific Conductance (uS/cm, 25 oC) = 3298
                          Density (g/cm3)  =   0.99719
                        Activity of water  =   1.000
                           Ionic strength  =  8.153e-003
                       Mass of water (kg)  =  1.000e+000
                 Total alkalinity (eq/kg)  = -8.153e-003
                    Total carbon (mol/kg)  =  0.000e+000
                       Total CO2 (mol/kg)  =  0.000e+000
                      Temperature (deg C)  =  25.00
                  Electrical balance (eq)  = -9.074e-018
 Percent error, 100*(Cat-|An|)/(Cat+|An|)  =  -0.00
                               Iterations  =  13
                                  Total H  = 1.110206e+002
                                  Total O  = 5.550622e+001

----------------------------Distribution of species----------------------------

                                               Log       Log       Log    mole V
   Species          Molality    Activity  Molality  Activity     Gamma   cm3/mol

   H+             8.153e-003  7.498e-003    -2.089    -2.125    -0.036      0.00
   OH-            1.471e-012  1.336e-012   -11.832   -11.874    -0.042     -4.01
   H2O            5.551e+001  9.997e-001     1.744    -0.000     0.000     18.07
Cl           8.153e-003
   Cl-            8.153e-003  7.408e-003    -2.089    -2.130    -0.042     18.12
H(0)         4.416e-039
   H2             2.208e-039  2.212e-039   -38.656   -38.655     0.001     28.61
O(0)         1.700e-015
   O2             8.500e-016  8.516e-016   -15.071   -15.070     0.001     30.40

------------------------------Saturation indices-------------------------------

	Phase               SI   log IAP   log K(298 K,   1 atm)

	H2(g)           -35.55    -38.66   -3.10  H2
	H2O(g)           -1.50     -0.00    1.50  H2O
	O2(g)           -12.18    -15.07   -2.89  O2


Reaction step 6.

Using solution 1.	
Using temperature 1.	
Using pressure 1.	
Using reaction 1.	

Reaction 1.	

	 1.005e-002 moles of the following reaction have been added:

	                 Relative
	Reactant            moles

	HCl                  1.00000

	                 Relative
	Element             moles
	Cl                   1.00000
	H                    1.00000

-----------------------------Solution composition------------------------------

	Elements           Molality       Moles

	Cl               1.005e-002  1.005e-002

----------------------------Description of solution----------------------------

                                       pH  =   2.037      Charge balance
                                       pe  =   3.622      Adjusted to redox equilibrium
       Specific Conductance (uS/cm, 25 oC) = 4047
                          Density (g/cm3)  =   0.99723
                        Activity of water  =   1.000
                           Ionic strength  =  1.005e-002
                       Mass of water (kg)  =  1.000e+000
                 Total alkalinity (eq/kg)  = -1.005e-002
                    Total carbon (mol/kg)  =  0.000e+000
                       Total CO2 (mol/kg)  =  0.000e+000
                      Temperature (deg C)  =  25.00
                  Electrical balance (eq)  =  1.531e-015
 Percent error, 100*(Cat-|An|)/(Cat+|An|)  =   0.00
                               Iterations  =  11
                                  Total H  = 1.110225e+002
                                  Total O  = 5.550622e+001

----------------------------Distribution of species----------------------------

                                               Log       Log       Log    mole V
   Species          Molality    Activity  Molality  Activity     Gamma   cm3/mol

   H+             1.005e-002  9.178e-003    -1.998    -2.037    -0.039      0.00
   OH-            1.213e-012  1.092e-012   -11.916   -11.962    -0.046     -4.00
   H2O            5.551e+001  9.997e-001     1.744    -0.000     0.000     18.07
Cl           1.005e-002
   Cl-            1.005e-002  9.046e-003    -1.998    -2.044    -0.046     18.13
H(0)         6.782e-015
   H2             3.391e-015  3.399e-015   -14.470   -14.469     0.001     28.61
O(0)         0.000e+000
   O2             0.000e+000  0.000e+000   -63.444   -63.443     0.001     30.40

------------------------------Saturation indices-------------------------------

	Phase               SI   log IAP   log K(298 K,   1 atm)

	H2(g)           -11.37    -14.47   -3.10  H2
	H2O(g)           -1.50     -0.00    1.50  H2O
	O2(g)           -60.55    -63.44   -2.89  O2


Reaction step 7.

Using solution 1.	
Using temperature 1.	
Using pressure 1.	
Using reaction 1.	

Reaction 1.	

	 1.090e-002 moles of the following reaction have been added:

	                 Relative
	Reactant            moles

	HCl                  1.00000

	                 Relative
	Element             moles
	Cl                   1.00000
	H                    1.00000

-----------------------------Solution composition------------------------------

	Elements           Molality       Moles

	Cl               1.090e-002  1.090e-002

----------------------------Description of solution----------------------------

                                       pH  =   2.003      Charge balance
                                       pe  =  15.805      Adjusted to redox equilibrium
       Specific Conductance (uS/cm, 25 oC) = 4382
                          Density (g/cm3)  =   0.99724
                        Activity of water  =   1.000
                           Ionic strength  =  1.090e-002
                       Mass of water (kg)  =  1.000e+000
                 Total alkalinity (eq/kg)  = -1.090e-002
                    Total carbon (mol/kg)  =  0.000e+000
                       Total CO2 (mol/kg)  =  0.000e+000
                      Temperature (deg C)  =  25.00
                  Electrical balance (eq)  =  3.112e-015
 Percent error, 100*(Cat-|An|)/(Cat+|An|)  =   0.00
                               Iterations  =  13
                                  Total H  = 1.110233e+002
                                  Total O  = 5.550622e+001

----------------------------Distribution of species----------------------------

                                               Log       Log       Log    mole V
   Species          Molality    Activity  Molality  Activity     Gamma   cm3/mol

   H+             1.090e-002  9.927e-003    -1.962    -2.003    -0.041      0.00
   OH-            1.126e-012  1.009e-012   -11.948   -11.996    -0.048     -3.99
   H2O            5.551e+001  9.996e-001     1.744    -0.000     0.000     18.07
Cl           1.090e-002
   Cl-            1.090e-002  9.776e-003    -1.962    -2.010    -0.047     18.13
H(0)         3.414e-039
   H2             1.707e-039  1.711e-039   -38.768   -38.767     0.001     28.61
O(0)         2.838e-015
   O2             1.419e-015  1.423e-015   -14.848   -14.847     0.001     30.40

------------------------------Saturation indices-------------------------------

	Phase               SI   log IAP   log K(298 K,   1 atm)

	H2(g)           -35.67    -38.77   -3.10  H2
	H2O(g)           -1.50     -0.00    1.50  H2O
	O2(g)           -11.95    -14.85   -2.89  O2


Reaction step 8.

Using solution 1.	
Using temperature 1.	
Using pressure 1.	
Using reaction 1.	

Reaction 1.	

	 1.992e-002 moles of the following reaction have been added:

	                 Relative
	Reactant            moles

	HCl                  1.00000

	                 Relative
	Element             moles
	Cl                   1.00000
	H                    1.00000

-----------------------------Solution composition------------------------------

	Elements           Molality       Moles

	Cl               1.992e-002  1.992e-002

----------------------------Description of solution----------------------------

                                       pH  =   1.752      Charge balance
                                       pe  =  16.020      Adjusted to redox equilibrium
       Specific Conductance (uS/cm, 25 oC) = 7887
                          Density (g/cm3)  =   0.99741
                        Activity of water  =   0.999
                           Ionic strength  =  1.992e-002
                       Mass of water (kg)  =  1.000e+000
                 Total alkalinity (eq/kg)  = -1.992e-002
                    Total carbon (mol/kg)  =  0.000e+000
                       Total CO2 (mol/kg)  =  0.000e+000
                      Temperature (deg C)  =  25.00
                  Electrical balance (eq)  =  2.247e-011
 Percent error, 100*(Cat-|An|)/(Cat+|An|)  =   0.00
                               Iterations  =  13
                                  Total H  = 1.110324e+002
                                  Total O  = 5.550622e+001

----------------------------Distribution of species----------------------------

                                               Log       Log       Log    mole V
   Species          Molality    Activity  Molality  Activity     Gamma   cm3/mol

   H+             1.992e-002  1.772e-002    -1.701    -1.752    -0.051      0.00
   OH-            6.518e-013  5.652e-013   -12.186   -12.248    -0.062     -3.94
   H2O            5.551e+001  9.993e-001     1.744    -0.000     0.000     18.07
Cl           1.992e-002
   Cl-            1.992e-002  1.728e-002    -1.701    -1.762    -0.062     18.17
H(0)         4.040e-039
   H2             2.020e-039  2.029e-039   -38.695   -38.693     0.002     28.61
O(0)         2.013e-015
   O2             1.006e-015  1.011e-015   -14.997   -14.995     0.002     30.40

------------------------------Saturation indices-------------------------------

	Phase               SI   log IAP   log K(298 K,   1 atm)

	H2(g)           -35.59    -38.69   -3.10  H2
	H2O(g)           -1.50     -0.00    1.50  H2O
	O2(g)           -12.10    -15.00   -2.89  O2


Reaction step 9.

Using solution 1.	
Using temperature 1.	
Using pressure 1.	
Using reaction 1.	

Reaction 1.	

	 2.032e-002 moles of the following reaction have been added:

	                 Relative
	Reactant            moles

	HCl                  1.00000

	                 Relative
	Element             moles
	Cl                   1.00000
	H                    1.00000

-----------------------------Solution composition------------------------------

	Elements           Molality       Moles

	Cl               2.032e-002  2.032e-002

----------------------------Description of solution----------------------------

                                       pH  =   1.743      Charge balance
                                       pe  =  15.945      Adjusted to redox equilibrium
       Specific Conductance (uS/cm, 25 oC) = 8042
                          Density (g/cm3)  =   0.99741
                        Activity of water  =   0.999
                           Ionic strength  =  2.032e-002
                       Mass of water (kg)  =  1.000e+000
                 Total alkalinity (eq/kg)  = -2.032e-002
                    Total carbon (mol/kg)  =  0.000e+000
                       Total CO2 (mol/kg)  =  0.000e+000
                      Temperature (deg C)  =  25.00
                  Electrical balance (eq)  = -4.518e-018
 Percent error, 100*(Cat-|An|)/(Cat+|An|)  =  -0.00
                               Iterations  =  13
                                  Total H  = 1.110328e+002
                                  Total O  = 5.550622e+001

----------------------------Distribution of species----------------------------

                                               Log       Log       Log    mole V
   Species          Molality    Activity  Molality  Activity     Gamma   cm3/mol

   H+             2.032e-002  1.806e-002    -1.692    -1.743    -0.051      0.00
   OH-            6.402e-013  5.545e-013   -12.194   -12.256    -0.062     -3.94
   H2O            5.551e+001  9.993e-001     1.744    -0.000     0.000     18.07
Cl           2.032e-002
   Cl-            2.032e-002  1.761e-002    -1.692    -1.754    -0.062     18.17
H(0)         5.918e-039
   H2             2.959e-039  2.973e-039   -38.529   -38.527     0.002     28.61
O(0)         9.376e-016
   O2             4.688e-016  4.710e-016   -15.329   -15.327     0.002     30.40

------------------------------Saturation indices-------------------------------

	Phase               SI   log IAP   log K(298 K,   1 atm)

	H2(g)           -35.43    -38.53   -3.10  H2
	H2O(g)           -1.50     -0.00    1.50  H2O
	O2(g)           -12.43    -15.33   -2.89  O2


Reaction step 10.

Using solution 1.	
Using temperature 1.	
Using pressure 1.	
Using reaction 1.	

Reaction 1.	

	 2.072e-002 moles of the following reaction have been added:

	                 Relative
	Reactant            moles

	HCl                  1.00000

	                 Relative
	Element             moles
	Cl                   1.00000
	H                    1.00000

-----------------------------Solution composition------------------------------

	Elements           Molality       Moles

	Cl               2.072e-002  2.072e-002

----------------------------Description of solution----------------------------

                                       pH  =   1.735      Charge balance
                                       pe  =  16.048      Adjusted to redox equilibrium
       Specific Conductance (uS/cm, 25 oC) = 8197
                          Density (g/cm3)  =   0.99742
                        Activity of water  =   0.999
                           Ionic strength  =  2.072e-002
                       Mass of water (kg)  =  1.000e+000
                 Total alkalinity (eq/kg)  = -2.072e-002
                    Total carbon (mol/kg)  =  0.000e+000
                       Total CO2 (mol/kg)  =  0.000e+000
                      Temperature (deg C)  =  25.00
                  Electrical balance (eq)  = -1.627e-018
 Percent error, 100*(Cat-|An|)/(Cat+|An|)  =  -0.00
                               Iterations  =  14
                                  Total H  = 1.110332e+002
                                  Total O  = 5.550622e+001

----------------------------Distribution of species----------------------------

                                               Log       Log       Log    mole V
   Species          Molality    Activity  Molality  Activity     Gamma   cm3/mol

   H+             2.072e-002  1.841e-002    -1.684    -1.735    -0.052      0.00
   OH-            6.291e-013  5.441e-013   -12.201   -12.264    -0.063     -3.94
   H2O            5.551e+001  9.993e-001     1.744    -0.000     0.000     18.07
Cl           2.072e-002
   Cl-            2.072e-002  1.794e-002    -1.684    -1.746    -0.063     18.17
H(0)         3.833e-039
   H2             1.916e-039  1.926e-039   -38.717   -38.715     0.002     28.61
O(0)         2.235e-015
   O2             1.117e-015  1.123e-015   -14.952   -14.950     0.002     30.40

------------------------------Saturation indices-------------------------------

	Phase               SI   log IAP   log K(298 K,   1 atm)

	H2(g)           -35.61    -38.72   -3.10  H2
	H2O(g)           -1.50     -0.00    1.50  H2O
	O2(g)           -12.06    -14.95   -2.89  O2


Reaction step 11.

Using solution 1.	
Using temperature 1.	
Using pressure 1.	
Using reaction 1.	

Reaction 1.	

	 2.918e-002 moles of the following reaction have been added:

	                 Relative
	Reactant            moles

	HCl                  1.00000

	                 Relative
	Element             moles
	Cl                   1.00000
	H                    1.00000

-----------------------------Solution composition------------------------------

	Elements           Molality       Moles

	Cl               2.918e-002  2.918e-002

----------------------------Description of solution----------------------------

                                       pH  =   1.593      Charge balance
                                       pe  =  16.207      Adjusted to redox equilibrium
       Specific Conductance (uS/cm, 25 oC) = 11430
                          Density (g/cm3)  =   0.99758
                        Activity of water  =   0.999
                           Ionic strength  =  2.918e-002
                       Mass of water (kg)  =  1.000e+000
                 Total alkalinity (eq/kg)  = -2.918e-002
                    Total carbon (mol/kg)  =  0.000e+000
                       Total CO2 (mol/kg)  =  0.000e+000
                      Temperature (deg C)  =  25.00
                  Electrical balance (eq)  =  1.609e-014
 Percent error, 100*(Cat-|An|)/(Cat+|An|)  =   0.00
                               Iterations  =  14
                                  Total H  = 1.110416e+002
                                  Total O  = 5.550622e+001

----------------------------Distribution of species----------------------------

                                               Log       Log       Log    mole V
   Species          Molality    Activity  Molality  Activity     Gamma   cm3/mol

   H+             2.918e-002  2.553e-002    -1.535    -1.593    -0.058      0.00
   OH-            4.637e-013  3.921e-013   -12.334   -12.407    -0.073     -3.90
   H2O            5.551e+001  9.990e-001     1.744    -0.000     0.000     18.07
Cl           2.918e-002
   Cl-            2.918e-002  2.470e-002    -1.535    -1.607    -0.072     18.19
H(0)         3.536e-039
   H2             1.768e-039  1.780e-039   -38.753   -38.750     0.003     28.61
O(0)         2.609e-015
   O2             1.305e-015  1.313e-015   -14.885   -14.882     0.003     30.40

------------------------------Saturation indices-------------------------------

	Phase               SI   log IAP   log K(298 K,   1 atm)

	H2(g)           -35.65    -38.75   -3.10  H2
	H2O(g)           -1.50     -0.00    1.50  H2O
	O2(g)           -11.99    -14.88   -2.89  O2


Reaction step 12.

Using solution 1.	
Using temperature 1.	
Using pressure 1.	
Using reaction 1.	

Reaction 1.	

	 3.001e-002 moles of the following reaction have been added:

	                 Relative
	Reactant            moles

	HCl                  1.00000

	                 Relative
	Element             moles
	Cl                   1.00000
	H                    1.00000

-----------------------------Solution composition------------------------------

	Elements           Molality       Moles

	Cl               3.001e-002  3.001e-002

----------------------------Description of solution----------------------------

                                       pH  =   1.581      Charge balance
                                       pe  =   3.977      Adjusted to redox equilibrium
       Specific Conductance (uS/cm, 25 oC) = 11747
                          Density (g/cm3)  =   0.99759
                        Activity of water  =   0.999
                           Ionic strength  =  3.001e-002
                       Mass of water (kg)  =  1.000e+000
                 Total alkalinity (eq/kg)  = -3.001e-002
                    Total carbon (mol/kg)  =  0.000e+000
                       Total CO2 (mol/kg)  =  0.000e+000
                      Temperature (deg C)  =  25.00
                  Electrical balance (eq)  =  1.517e-014
 Percent error, 100*(Cat-|An|)/(Cat+|An|)  =   0.00
                               Iterations  =  11
                                  Total H  = 1.110424e+002
                                  Total O  = 5.550622e+001

----------------------------Distribution of species----------------------------

                                               Log       Log       Log    mole V
   Species          Molality    Activity  Molality  Activity     Gamma   cm3/mol

   H+             3.001e-002  2.623e-002    -1.523    -1.581    -0.058      0.00
   OH-            4.522e-013  3.817e-013   -12.345   -12.418    -0.074     -3.90
   H2O            5.551e+001  9.990e-001     1.744    -0.000     0.000     18.07
Cl           3.001e-002
   Cl-            3.001e-002  2.535e-002    -1.523    -1.596    -0.073     18.20
H(0)         1.074e-014
   H2             5.371e-015  5.408e-015   -14.270   -14.267     0.003     28.61
O(0)         0.000e+000
   O2             0.000e+000  0.000e+000   -63.850   -63.847     0.003     30.40

------------------------------Saturation indices-------------------------------

	Phase               SI   log IAP   log K(298 K,   1 atm)

	H2(g)           -11.17    -14.27   -3.10  H2
	H2O(g)           -1.50     -0.00    1.50  H2O
	O2(g)           -60.95    -63.85   -2.89  O2


Reaction step 13.

Using solution 1.	
Using temperature 1.	
Using pressure 1.	
Using reaction 1.	

Reaction 1.	

	 3.964e-002 moles of the following reaction have been added:

	                 Relative
	Reactant            moles

	HCl                  1.00000

	                 Relative
	Element             moles
	Cl                   1.00000
	H                    1.00000

-----------------------------Solution composition------------------------------

	Elements           Molality       Moles

	Cl               3.964e-002  3.964e-002

----------------------------Description of solution----------------------------

                                       pH  =   1.466      Charge balance
                                       pe  =   3.968      Adjusted to redox equilibrium
       Specific Conductance (uS/cm, 25 oC) = 15387
                          Density (g/cm3)  =   0.99777
                        Activity of water  =   0.999
                           Ionic strength  =  3.964e-002
                       Mass of water (kg)  =  1.000e+000
                 Total alkalinity (eq/kg)  = -3.964e-002
                    Total carbon (mol/kg)  =  0.000e+000
                       Total CO2 (mol/kg)  =  0.000e+000
                      Temperature (deg C)  =  25.00
                  Electrical balance (eq)  = -1.386e-018
 Percent error, 100*(Cat-|An|)/(Cat+|An|)  =  -0.00
                               Iterations  =  12
                                  Total H  = 1.110521e+002
                                  Total O  = 5.550622e+001

----------------------------Distribution of species----------------------------

                                               Log       Log       Log    mole V
   Species          Molality    Activity  Molality  Activity     Gamma   cm3/mol

   H+             3.964e-002  3.421e-002    -1.402    -1.466    -0.064      0.00
   OH-            3.538e-013  2.925e-013   -12.451   -12.534    -0.083     -3.86
   H2O            5.551e+001  9.987e-001     1.744    -0.001     0.000     18.07
Cl           3.964e-002
   Cl-            3.964e-002  3.282e-002    -1.402    -1.484    -0.082     18.22
H(0)         1.900e-014
   H2             9.498e-015  9.585e-015   -14.022   -14.018     0.004     28.61
O(0)         0.000e+000
   O2             0.000e+000  0.000e+000   -64.348   -64.344     0.004     30.40

------------------------------Saturation indices-------------------------------

	Phase               SI   log IAP   log K(298 K,   1 atm)

	H2(g)           -10.92    -14.02   -3.10  H2
	H2O(g)           -1.50     -0.00    1.50  H2O
	O2(g)           -61.45    -64.34   -2.89  O2


Reaction step 14.

Using solution 1.	
Using temperature 1.	
Using pressure 1.	
Using reaction 1.	

Reaction 1.	

	 4.000e-002 moles of the following reaction have been added:

	                 Relative
	Reactant            moles

	HCl                  1.00000

	                 Relative
	Element             moles
	Cl                   1.00000
	H                    1.00000

-----------------------------Solution composition------------------------------

	Elements           Molality       Moles

	Cl               4.000e-002  4.000e-002

----------------------------Description of solution----------------------------

                                       pH  =   1.462      Charge balance
                                       pe  =   3.847      Adjusted to redox equilibrium
       Specific Conductance (uS/cm, 25 oC) = 15522
                          Density (g/cm3)  =   0.99777
                        Activity of water  =   0.999
                           Ionic strength  =  4.000e-002
                       Mass of water (kg)  =  1.000e+000
                 Total alkalinity (eq/kg)  = -4.000e-002
                    Total carbon (mol/kg)  =  0.000e+000
                       Total CO2 (mol/kg)  =  0.000e+000
                      Temperature (deg C)  =  25.00
                  Electrical balance (eq)  =  6.057e-011
 Percent error, 100*(Cat-|An|)/(Cat+|An|)  =   0.00
                               Iterations  =  11
                                  Total H  = 1.110524e+002
                                  Total O  = 5.550622e+001

----------------------------Distribution of species----------------------------

                                               Log       Log       Log    mole V
   Species          Molality    Activity  Molality  Activity     Gamma   cm3/mol

   H+             4.000e-002  3.451e-002    -1.398    -1.462    -0.064      0.00
   OH-            3.510e-013  2.900e-013   -12.455   -12.538    -0.083     -3.86
   H2O            5.551e+001  9.986e-001     1.744    -0.001     0.000     18.07
Cl           4.000e-002
   Cl-            4.000e-002  3.309e-002    -1.398    -1.480    -0.082     18.22
H(0)         3.377e-014
   H2             1.689e-014  1.704e-014   -13.772   -13.768     0.004     28.61
O(0)         0.000e+000
   O2             0.000e+000  0.000e+000   -64.848   -64.844     0.004     30.40

------------------------------Saturation indices-------------------------------

	Phase               SI   log IAP   log K(298 K,   1 atm)

	H2(g)           -10.67    -13.77   -3.10  H2
	H2O(g)           -1.50     -0.00    1.50  H2O
	O2(g)           -61.95    -64.84   -2.89  O2


Reaction step 15.

Using solution 1.	
Using temperature 1.	
Using pressure 1.	
Using reaction 1.	

Reaction 1.	

	 5.050e-002 moles of the following reaction have been added:

	                 Relative
	Reactant            moles

	HCl                  1.00000

	                 Relative
	Element             moles
	Cl                   1.00000
	H                    1.00000

-----------------------------Solution composition------------------------------

	Elements           Molality       Moles

	Cl               5.050e-002  5.050e-002

----------------------------Description of solution----------------------------

                                       pH  =   1.366      Charge balance
                                       pe  =  16.169      Adjusted to redox equilibrium
       Specific Conductance (uS/cm, 25 oC) = 19454
                          Density (g/cm3)  =   0.99796
                        Activity of water  =   0.998
                           Ionic strength  =  5.050e-002
                       Mass of water (kg)  =  1.000e+000
                 Total alkalinity (eq/kg)  = -5.050e-002
                    Total carbon (mol/kg)  =  0.000e+000
                       Total CO2 (mol/kg)  =  0.000e+000
                      Temperature (deg C)  =  25.00
                  Electrical balance (eq)  =  3.732e-011
 Percent error, 100*(Cat-|An|)/(Cat+|An|)  =   0.00
                               Iterations  =  14
                                  Total H  = 1.110629e+002
                                  Total O  = 5.550622e+001

----------------------------Distribution of species----------------------------

                                               Log       Log       Log    mole V
   Species          Molality    Activity  Molality  Activity     Gamma   cm3/mol

   H+             5.050e-002  4.310e-002    -1.297    -1.366    -0.069      0.00
   OH-            2.863e-013  2.322e-013   -12.543   -12.634    -0.091     -3.82
   H2O            5.551e+001  9.983e-001     1.744    -0.001     0.000     18.07
Cl           5.050e-002
   Cl-            5.050e-002  4.102e-002    -1.297    -1.387    -0.090     18.24
H(0)         1.196e-038
   H2             5.980e-039  6.050e-039   -38.223   -38.218     0.005     28.61
O(0)         2.244e-016
   O2             1.122e-016  1.135e-016   -15.950   -15.945     0.005     30.40

------------------------------Saturation indices-------------------------------

	Phase               SI   log IAP   log K(298 K,   1 atm)

	H2(g)           -35.12    -38.22   -3.10  H2
	H2O(g)           -1.50     -0.00    1.50  H2O
	O2(g)           -13.05    -15.94   -2.89  O2


Reaction step 16.

Using solution 1.	
Using temperature 1.	
Using pressure 1.	
Using reaction 1.	

Reaction 1.	

	 5.765e-002 moles of the following reaction have been added:

	                 Relative
	Reactant            moles

	HCl                  1.00000

	                 Relative
	Element             moles
	Cl                   1.00000
	H                    1.00000

-----------------------------Solution composition------------------------------

	Elements           Molality       Moles

	Cl               5.765e-002  5.765e-002

----------------------------Description of solution----------------------------

                                       pH  =   1.311      Charge balance
                                       pe  =  16.484      Adjusted to redox equilibrium
       Specific Conductance (uS/cm, 25 oC) = 22113
                          Density (g/cm3)  =   0.99809
                        Activity of water  =   0.998
                           Ionic strength  =  5.765e-002
                       Mass of water (kg)  =  1.000e+000
                 Total alkalinity (eq/kg)  = -5.765e-002
                    Total carbon (mol/kg)  =  0.000e+000
                       Total CO2 (mol/kg)  =  0.000e+000
                      Temperature (deg C)  =  25.00
                  Electrical balance (eq)  =  1.646e-010
 Percent error, 100*(Cat-|An|)/(Cat+|An|)  =   0.00
                               Iterations  =  14
                                  Total H  = 1.110701e+002
                                  Total O  = 5.550622e+001

----------------------------Distribution of species----------------------------

                                               Log       Log       Log    mole V
   Species          Molality    Activity  Molality  Activity     Gamma   cm3/mol

   H+             5.765e-002  4.889e-002    -1.239    -1.311    -0.072      0.00
   OH-            2.552e-013  2.046e-013   -12.593   -12.689    -0.096     -3.79
   H2O            5.551e+001  9.980e-001     1.744    -0.001     0.000     18.07
Cl           5.765e-002
   Cl-            5.765e-002  4.631e-002    -1.239    -1.334    -0.095     18.26
H(0)         3.590e-039
   H2             1.795e-039  1.819e-039   -38.746   -38.740     0.006     28.61
O(0)         2.477e-015
   O2             1.239e-015  1.255e-015   -14.907   -14.901     0.006     30.40

------------------------------Saturation indices-------------------------------

	Phase               SI   log IAP   log K(298 K,   1 atm)

	H2(g)           -35.64    -38.74   -3.10  H2
	H2O(g)           -1.50     -0.00    1.50  H2O
	O2(g)           -12.01    -14.90   -2.89  O2


Reaction step 17.

Using solution 1.	
Using temperature 1.	
Using pressure 1.	
Using reaction 1.	

Reaction 1.	

	 6.184e-002 moles of the following reaction have been added:

	                 Relative
	Reactant            moles

	HCl                  1.00000

	                 Relative
	Element             moles
	Cl                   1.00000
	H                    1.00000

-----------------------------Solution composition------------------------------

	Elements           Molality       Moles

	Cl               6.184e-002  6.184e-002

----------------------------Description of solution----------------------------

                                       pH  =   1.282      Charge balance
                                       pe  =  16.519      Adjusted to redox equilibrium
       Specific Conductance (uS/cm, 25 oC) = 23665
                          Density (g/cm3)  =   0.99817
                        Activity of water  =   0.998
                           Ionic strength  =  6.184e-002
                       Mass of water (kg)  =  1.000e+000
                 Total alkalinity (eq/kg)  = -6.184e-002
                    Total carbon (mol/kg)  =  0.000e+000
                       Total CO2 (mol/kg)  =  0.000e+000
                      Temperature (deg C)  =  25.00
                  Electrical balance (eq)  =  7.434e-011
 Percent error, 100*(Cat-|An|)/(Cat+|An|)  =   0.00
                               Iterations  =  14
                                  Total H  = 1.110743e+002
                                  Total O  = 5.550622e+001

----------------------------Distribution of species----------------------------

                                               Log       Log       Log    mole V
   Species          Molality    Activity  Molality  Activity     Gamma   cm3/mol

   H+             6.184e-002  5.226e-002    -1.209    -1.282    -0.073      0.00
   OH-            2.402e-013  1.914e-013   -12.619   -12.718    -0.099     -3.78
   H2O            5.551e+001  9.979e-001     1.744    -0.001     0.000     18.07
Cl           6.184e-002
   Cl-            6.184e-002  4.938e-002    -1.209    -1.306    -0.098     18.27
H(0)         3.494e-039
   H2             1.747e-039  1.772e-039   -38.758   -38.752     0.006     28.61
O(0)         2.607e-015
   O2             1.303e-015  1.322e-015   -14.885   -14.879     0.006     30.40

------------------------------Saturation indices-------------------------------

	Phase               SI   log IAP   log K(298 K,   1 atm)

	H2(g)           -35.65    -38.75   -3.10  H2
	H2O(g)           -1.50     -0.00    1.50  H2O
	O2(g)           -11.99    -14.88   -2.89  O2


Reaction step 18.

Using solution 1.	
Using temperature 1.	
Using pressure 1.	
Using reaction 1.	

Reaction 1.	

	 7.539e-002 moles of the following reaction have been added:

	                 Relative
	Reactant            moles

	HCl                  1.00000

	                 Relative
	Element             moles
	Cl                   1.00000
	H                    1.00000

-----------------------------Solution composition------------------------------

	Elements           Molality       Moles

	Cl               7.539e-002  7.539e-002

----------------------------Description of solution----------------------------

                                       pH  =   1.200      Charge balance
                                       pe  =  16.447      Adjusted to redox equilibrium
       Specific Conductance (uS/cm, 25 oC) = 28660
                          Density (g/cm3)  =   0.99841
                        Activity of water  =   0.997
                           Ionic strength  =  7.539e-002
                       Mass of water (kg)  =  1.000e+000
                 Total alkalinity (eq/kg)  = -7.539e-002
                    Total carbon (mol/kg)  =  0.000e+000
                       Total CO2 (mol/kg)  =  0.000e+000
                      Temperature (deg C)  =  25.00
                  Electrical balance (eq)  =  2.641e-010
 Percent error, 100*(Cat-|An|)/(Cat+|An|)  =   0.00
                               Iterations  =  15
                                  Total H  = 1.110878e+002
                                  Total O  = 5.550622e+001

----------------------------Distribution of species----------------------------

                                               Log       Log       Log    mole V
   Species          Molality    Activity  Molality  Activity     Gamma   cm3/mol

   H+             7.539e-002  6.310e-002    -1.123    -1.200    -0.077      0.00
   OH-            2.024e-013  1.584e-013   -12.694   -12.800    -0.106     -3.73
   H2O            5.551e+001  9.974e-001     1.744    -0.001     0.000     18.07
Cl           7.539e-002
   Cl-            7.539e-002  5.916e-002    -1.123    -1.228    -0.105     18.29
H(0)         7.069e-039
   H2             3.535e-039  3.596e-039   -38.452   -38.444     0.008     28.61
O(0)         6.303e-016
   O2             3.151e-016  3.206e-016   -15.502   -15.494     0.008     30.40

------------------------------Saturation indices-------------------------------

	Phase               SI   log IAP   log K(298 K,   1 atm)

	H2(g)           -35.34    -38.44   -3.10  H2
	H2O(g)           -1.50     -0.00    1.50  H2O
	O2(g)           -12.60    -15.49   -2.89  O2


Reaction step 19.

Using solution 1.	
Using temperature 1.	
Using pressure 1.	
Using reaction 1.	

Reaction 1.	

	 7.969e-002 moles of the following reaction have been added:

	                 Relative
	Reactant            moles

	HCl                  1.00000

	                 Relative
	Element             moles
	Cl                   1.00000
	H                    1.00000

-----------------------------Solution composition------------------------------

	Elements           Molality       Moles

	Cl               7.969e-002  7.969e-002

----------------------------Description of solution----------------------------

                                       pH  =   1.177      Charge balance
                                       pe  =  16.394      Adjusted to redox equilibrium
       Specific Conductance (uS/cm, 25 oC) = 30238
                          Density (g/cm3)  =   0.99849
                        Activity of water  =   0.997
                           Ionic strength  =  7.969e-002
                       Mass of water (kg)  =  1.000e+000
                 Total alkalinity (eq/kg)  = -7.969e-002
                    Total carbon (mol/kg)  =  0.000e+000
                       Total CO2 (mol/kg)  =  0.000e+000
                      Temperature (deg C)  =  25.00
                  Electrical balance (eq)  =  5.840e-011
 Percent error, 100*(Cat-|An|)/(Cat+|An|)  =   0.00
                               Iterations  =  15
                                  Total H  = 1.110921e+002
                                  Total O  = 5.550622e+001

----------------------------Distribution of species----------------------------

                                               Log       Log       Log    mole V
   Species          Molality    Activity  Molality  Activity     Gamma   cm3/mol

   H+             7.969e-002  6.652e-002    -1.099    -1.177    -0.078      0.00
   OH-            1.930e-013  1.503e-013   -12.714   -12.823    -0.109     -3.71
   H2O            5.551e+001  9.973e-001     1.744    -0.001     0.000     18.07
Cl           7.969e-002
   Cl-            7.969e-002  6.222e-002    -1.099    -1.206    -0.108     18.30
H(0)         9.998e-039
   H2             4.999e-039  5.092e-039   -38.301   -38.293     0.008     28.61
O(0)         3.140e-016
   O2             1.570e-016  1.599e-016   -15.804   -15.796     0.008     30.40

------------------------------Saturation indices-------------------------------

	Phase               SI   log IAP   log K(298 K,   1 atm)

	H2(g)           -35.19    -38.29   -3.10  H2
	H2O(g)           -1.50     -0.00    1.50  H2O
	O2(g)           -12.90    -15.80   -2.89  O2


Reaction step 20.

Using solution 1.	
Using temperature 1.	
Using pressure 1.	
Using reaction 1.	

Reaction 1.	

	 7.993e-002 moles of the following reaction have been added:

	                 Relative
	Reactant            moles

	HCl                  1.00000

	                 Relative
	Element             moles
	Cl                   1.00000
	H                    1.00000

-----------------------------Solution composition------------------------------

	Elements           Molality       Moles

	Cl               7.993e-002  7.993e-002

----------------------------Description of solution----------------------------

                                       pH  =   1.176      Charge balance
                                       pe  =   4.537      Adjusted to redox equilibrium
       Specific Conductance (uS/cm, 25 oC) = 30327
                          Density (g/cm3)  =   0.99849
                        Activity of water  =   0.997
                           Ionic strength  =  7.993e-002
                       Mass of water (kg)  =  1.000e+000
                 Total alkalinity (eq/kg)  = -7.993e-002
                    Total carbon (mol/kg)  =  0.000e+000
                       Total CO2 (mol/kg)  =  0.000e+000
                      Temperature (deg C)  =  25.00
                  Electrical balance (eq)  =  7.126e-017
 Percent error, 100*(Cat-|An|)/(Cat+|An|)  =   0.00
                               Iterations  =  11
                                  Total H  = 1.110924e+002
                                  Total O  = 5.550622e+001

----------------------------Distribution of species----------------------------

                                               Log       Log       Log    mole V
   Species          Molality    Activity  Molality  Activity     Gamma   cm3/mol

   H+             7.993e-002  6.671e-002    -1.097    -1.176    -0.079      0.00
   OH-            1.925e-013  1.498e-013   -12.716   -12.824    -0.109     -3.71
   H2O            5.551e+001  9.973e-001     1.744    -0.001     0.000     18.07
Cl           7.993e-002
   Cl-            7.993e-002  6.239e-002    -1.097    -1.205    -0.108     18.30
H(0)         5.224e-015
   H2             2.612e-015  2.660e-015   -14.583   -14.575     0.008     28.61
O(0)         0.000e+000
   O2             0.000e+000  0.000e+000   -63.240   -63.232     0.008     30.40

------------------------------Saturation indices-------------------------------

	Phase               SI   log IAP   log K(298 K,   1 atm)

	H2(g)           -11.47    -14.58   -3.10  H2
	H2O(g)           -1.50     -0.00    1.50  H2O
	O2(g)           -60.34    -63.23   -2.89  O2


Reaction step 21.

Using solution 1.	
Using temperature 1.	
Using pressure 1.	
Using reaction 1.	

Reaction 1.	

	 9.071e-002 moles of the following reaction have been added:

	                 Relative
	Reactant            moles

	HCl                  1.00000

	                 Relative
	Element             moles
	Cl                   1.00000
	H                    1.00000

-----------------------------Solution composition------------------------------

	Elements           Molality       Moles

	Cl               9.071e-002  9.071e-002

----------------------------Description of solution----------------------------

                                       pH  =   1.124      Charge balance
                                       pe  =   4.597      Adjusted to redox equilibrium
       Specific Conductance (uS/cm, 25 oC) = 34269
                          Density (g/cm3)  =   0.99869
                        Activity of water  =   0.997
                           Ionic strength  =  9.071e-002
                       Mass of water (kg)  =  1.000e+000
                 Total alkalinity (eq/kg)  = -9.071e-002
                    Total carbon (mol/kg)  =  0.000e+000
                       Total CO2 (mol/kg)  =  0.000e+000
                      Temperature (deg C)  =  25.00
                  Electrical balance (eq)  =  1.642e-015
 Percent error, 100*(Cat-|An|)/(Cat+|An|)  =   0.00
                               Iterations  =  12
                                  Total H  = 1.111031e+002
                                  Total O  = 5.550622e+001

----------------------------Distribution of species----------------------------

                                               Log       Log       Log    mole V
   Species          Molality    Activity  Molality  Activity     Gamma   cm3/mol

   H+             9.071e-002  7.523e-002    -1.042    -1.124    -0.081      0.00
   OH-            1.727e-013  1.328e-013   -12.763   -12.877    -0.114     -3.68
   H2O            5.551e+001  9.969e-001     1.744    -0.001     0.000     18.07
Cl           9.071e-002
   Cl-            9.071e-002  6.997e-002    -1.042    -1.155    -0.113     18.31
H(0)         5.022e-015
   H2             2.511e-015  2.564e-015   -14.600   -14.591     0.009     28.61
O(0)         0.000e+000
   O2             0.000e+000  0.000e+000   -63.210   -63.201     0.009     30.40

------------------------------Saturation indices-------------------------------

	Phase               SI   log IAP   log K(298 K,   1 atm)

	H2(g)           -11.49    -14.59   -3.10  H2
	H2O(g)           -1.50     -0.00    1.50  H2O
	O2(g)           -60.31    -63.20   -2.89  O2


Reaction step 22.

Using solution 1.	
Using temperature 1.	
Using pressure 1.	
Using reaction 1.	

Reaction 1.	

	 9.898e-002 moles of the following reaction have been added:

	                 Relative
	Reactant            moles

	HCl                  1.00000

	                 Relative
	Element             moles
	Cl                   1.00000
	H                    1.00000

-----------------------------Solution composition------------------------------

	Elements           Molality       Moles

	Cl               9.898e-002  9.898e-002

----------------------------Description of solution----------------------------

                                       pH  =   1.088      Charge balance
                                       pe  =  16.638      Adjusted to redox equilibrium
       Specific Conductance (uS/cm, 25 oC) = 37280
                          Density (g/cm3)  =   0.99883
                        Activity of water  =   0.997
                           Ionic strength  =  9.898e-002
                       Mass of water (kg)  =  1.000e+000
                 Total alkalinity (eq/kg)  = -9.898e-002
                    Total carbon (mol/kg)  =  0.000e+000
                       Total CO2 (mol/kg)  =  0.000e+000
                      Temperature (deg C)  =  25.00
                  Electrical balance (eq)  =  5.589e-013
 Percent error, 100*(Cat-|An|)/(Cat+|An|)  =   0.00
                               Iterations  =  15
                                  Total H  = 1.111114e+002
                                  Total O  = 5.550622e+001

----------------------------Distribution of species----------------------------

                                               Log       Log       Log    mole V
   Species          Molality    Activity  Molality  Activity     Gamma   cm3/mol

   H+             9.898e-002  8.174e-002    -1.004    -1.088    -0.083      0.00
   OH-            1.603e-013  1.222e-013   -12.795   -12.913    -0.118     -3.65
   H2O            5.551e+001  9.966e-001     1.744    -0.001     0.000     18.07
Cl           9.898e-002
   Cl-            9.898e-002  7.572e-002    -1.004    -1.121    -0.116     18.33
H(0)         4.887e-039
   H2             2.444e-039  2.500e-039   -38.612   -38.602     0.010     28.61
O(0)         1.295e-015
   O2             6.476e-016  6.625e-016   -15.189   -15.179     0.010     30.40

------------------------------Saturation indices-------------------------------

	Phase               SI   log IAP   log K(298 K,   1 atm)

	H2(g)           -35.50    -38.60   -3.10  H2
	H2O(g)           -1.50     -0.00    1.50  H2O
	O2(g)           -12.29    -15.18   -2.89  O2


Reaction step 23.

Using solution 1.	
Using temperature 1.	
Using pressure 1.	
Using reaction 1.	

Reaction 1.	

	 1.001e-001 moles of the following reaction have been added:

	                 Relative
	Reactant            moles

	HCl                  1.00000

	                 Relative
	Element             moles
	Cl                   1.00000
	H                    1.00000

-----------------------------Solution composition------------------------------

	Elements           Molality       Moles

	Cl               1.001e-001  1.001e-001

----------------------------Description of solution----------------------------

                                       pH  =   1.083      Charge balance
                                       pe  =  16.633      Adjusted to redox equilibrium
       Specific Conductance (uS/cm, 25 oC) = 37687
                          Density (g/cm3)  =   0.99885
                        Activity of water  =   0.997
                           Ionic strength  =  1.001e-001
                       Mass of water (kg)  =  1.000e+000
                 Total alkalinity (eq/kg)  = -1.001e-001
                    Total carbon (mol/kg)  =  0.000e+000
                       Total CO2 (mol/kg)  =  0.000e+000
                      Temperature (deg C)  =  25.00
                  Electrical balance (eq)  =  6.161e-013
 Percent error, 100*(Cat-|An|)/(Cat+|An|)  =   0.00
                               Iterations  =  15
                                  Total H  = 1.111125e+002
                                  Total O  = 5.550622e+001

----------------------------Distribution of species----------------------------

                                               Log       Log       Log    mole V
   Species          Molality    Activity  Molality  Activity     Gamma   cm3/mol

   H+             1.001e-001  8.261e-002    -1.000    -1.083    -0.083      0.00
   OH-            1.588e-013  1.209e-013   -12.799   -12.918    -0.118     -3.65
   H2O            5.551e+001  9.966e-001     1.744    -0.001     0.000     18.07
Cl           1.001e-001
   Cl-            1.001e-001  7.649e-002    -1.000    -1.116    -0.117     18.33
H(0)         5.122e-039
   H2             2.561e-039  2.621e-039   -38.592   -38.582     0.010     28.61
O(0)         1.178e-015
   O2             5.891e-016  6.028e-016   -15.230   -15.220     0.010     30.40

------------------------------Saturation indices-------------------------------

	Phase               SI   log IAP   log K(298 K,   1 atm)

	H2(g)           -35.48    -38.58   -3.10  H2
	H2O(g)           -1.50     -0.00    1.50  H2O
	O2(g)           -12.33    -15.22   -2.89  O2


Reaction step 24.

Using solution 1.	
Using temperature 1.	
Using pressure 1.	
Using reaction 1.	

Reaction 1.	

	 1.159e-001 moles of the following reaction have been added:

	                 Relative
	Reactant            moles

	HCl                  1.00000

	                 Relative
	Element             moles
	Cl                   1.00000
	H                    1.00000

-----------------------------Solution composition------------------------------

	Elements           Molality       Moles

	Cl               1.159e-001  1.159e-001

----------------------------Description of solution----------------------------

                                       pH  =   1.022      Charge balance
                                       pe  =  16.742      Adjusted to redox equilibrium
       Specific Conductance (uS/cm, 25 oC) = 43414
                          Density (g/cm3)  =   0.99914
                        Activity of water  =   0.996
                           Ionic strength  =  1.159e-001
                       Mass of water (kg)  =  1.000e+000
                 Total alkalinity (eq/kg)  = -1.159e-001
                    Total carbon (mol/kg)  =  0.000e+000
                       Total CO2 (mol/kg)  =  0.000e+000
                      Temperature (deg C)  =  25.00
                  Electrical balance (eq)  =  5.657e-015
 Percent error, 100*(Cat-|An|)/(Cat+|An|)  =   0.00
                               Iterations  =  15
                                  Total H  = 1.111283e+002
                                  Total O  = 5.550622e+001

----------------------------Distribution of species----------------------------

                                               Log       Log       Log    mole V
   Species          Molality    Activity  Molality  Activity     Gamma   cm3/mol

   H+             1.159e-001  9.496e-002    -0.936    -1.022    -0.087      0.00
   OH-            1.401e-013  1.051e-013   -12.854   -12.978    -0.125     -3.60
   H2O            5.551e+001  9.961e-001     1.744    -0.002     0.000     18.07
Cl           1.159e-001
   Cl-            1.159e-001  8.730e-002    -0.936    -1.059    -0.123     18.35
H(0)         4.084e-039
   H2             2.042e-039  2.097e-039   -38.690   -38.678     0.012     28.61
O(0)         1.831e-015
   O2             9.155e-016  9.403e-016   -15.038   -15.027     0.012     30.40

------------------------------Saturation indices-------------------------------

	Phase               SI   log IAP   log K(298 K,   1 atm)

	H2(g)           -35.58    -38.68   -3.10  H2
	H2O(g)           -1.50     -0.00    1.50  H2O
	O2(g)           -12.13    -15.03   -2.89  O2


Reaction step 25.

Using solution 1.	
Using temperature 1.	
Using pressure 1.	
Using reaction 1.	

Reaction 1.	

	 1.240e-001 moles of the following reaction have been added:

	                 Relative
	Reactant            moles

	HCl                  1.00000

	                 Relative
	Element             moles
	Cl                   1.00000
	H                    1.00000

-----------------------------Solution composition------------------------------

	Elements           Molality       Moles

	Cl               1.240e-001  1.240e-001

----------------------------Description of solution----------------------------

                                       pH  =   0.995      Charge balance
                                       pe  =  16.798      Adjusted to redox equilibrium
       Specific Conductance (uS/cm, 25 oC) = 46338
                          Density (g/cm3)  =   0.99928
                        Activity of water  =   0.996
                           Ionic strength  =  1.240e-001
                       Mass of water (kg)  =  1.000e+000
                 Total alkalinity (eq/kg)  = -1.240e-001
                    Total carbon (mol/kg)  =  0.000e+000
                       Total CO2 (mol/kg)  =  0.000e+000
                      Temperature (deg C)  =  25.00
                  Electrical balance (eq)  =  2.685e-016
 Percent error, 100*(Cat-|An|)/(Cat+|An|)  =   0.00
                               Iterations  =  15
                                  Total H  = 1.111364e+002
                                  Total O  = 5.550622e+001

----------------------------Distribution of species----------------------------

                                               Log       Log       Log    mole V
   Species          Molality    Activity  Molality  Activity     Gamma   cm3/mol

   H+             1.240e-001  1.013e-001    -0.907    -0.995    -0.088      0.00
   OH-            1.323e-013  9.856e-014   -12.878   -13.006    -0.128     -3.58
   H2O            5.551e+001  9.958e-001     1.744    -0.002     0.000     18.07
Cl           1.240e-001
   Cl-            1.240e-001  9.278e-002    -0.907    -1.033    -0.126     18.36
H(0)         3.570e-039
   H2             1.785e-039  1.837e-039   -38.748   -38.736     0.012     28.61
O(0)         2.382e-015
   O2             1.191e-015  1.226e-015   -14.924   -14.912     0.012     30.40

------------------------------Saturation indices-------------------------------

	Phase               SI   log IAP   log K(298 K,   1 atm)

	H2(g)           -35.63    -38.74   -3.10  H2
	H2O(g)           -1.50     -0.00    1.50  H2O
	O2(g)           -12.02    -14.91   -2.89  O2


Reaction step 26.

Using solution 1.	
Using temperature 1.	
Using pressure 1.	
Using reaction 1.	

Reaction 1.	

	 1.257e-001 moles of the following reaction have been added:

	                 Relative
	Reactant            moles

	HCl                  1.00000

	                 Relative
	Element             moles
	Cl                   1.00000
	H                    1.00000

-----------------------------Solution composition------------------------------

	Elements           Molality       Moles

	Cl               1.256e-001  1.257e-001

----------------------------Description of solution----------------------------

                                       pH  =   0.989      Charge balance
                                       pe  =  16.843      Adjusted to redox equilibrium
       Specific Conductance (uS/cm, 25 oC) = 46933
                          Density (g/cm3)  =   0.99931
                        Activity of water  =   0.996
                           Ionic strength  =  1.256e-001
                       Mass of water (kg)  =  1.000e+000
                 Total alkalinity (eq/kg)  = -1.256e-001
                    Total carbon (mol/kg)  =  0.000e+000
                       Total CO2 (mol/kg)  =  0.000e+000
                      Temperature (deg C)  =  25.00
                  Electrical balance (eq)  =  1.978e-013
 Percent error, 100*(Cat-|An|)/(Cat+|An|)  =   0.00
                               Iterations  =  14
                                  Total H  = 1.111381e+002
                                  Total O  = 5.550622e+001

----------------------------Distribution of species----------------------------

                                               Log       Log       Log    mole V
   Species          Molality    Activity  Molality  Activity     Gamma   cm3/mol

   H+             1.256e-001  1.025e-001    -0.901    -0.989    -0.088      0.00
   OH-            1.308e-013  9.732e-014   -12.883   -13.012    -0.128     -3.57
   H2O            5.551e+001  9.957e-001     1.744    -0.002     0.000     18.07
Cl           1.256e-001
   Cl-            1.256e-001  9.389e-002    -0.901    -1.027    -0.127     18.36
H(0)         2.975e-039
   H2             1.488e-039  1.531e-039   -38.828   -38.815     0.013     28.61
O(0)         3.425e-015
   O2             1.713e-015  1.763e-015   -14.766   -14.754     0.013     30.40

------------------------------Saturation indices-------------------------------

	Phase               SI   log IAP   log K(298 K,   1 atm)

	H2(g)           -35.71    -38.81   -3.10  H2
	H2O(g)           -1.50     -0.00    1.50  H2O
	O2(g)           -11.86    -14.75   -2.89  O2


Reaction step 27.

Using solution 1.	
Using temperature 1.	
Using pressure 1.	
Using reaction 1.	

Reaction 1.	

	 1.382e-001 moles of the following reaction have been added:

	                 Relative
	Reactant            moles

	HCl                  1.00000

	                 Relative
	Element             moles
	Cl                   1.00000
	H                    1.00000

-----------------------------Solution composition------------------------------

	Elements           Molality       Moles

	Cl               1.382e-001  1.382e-001

----------------------------Description of solution----------------------------

                                       pH  =   0.950      Charge balance
                                       pe  =  16.766      Adjusted to redox equilibrium
       Specific Conductance (uS/cm, 25 oC) = 51449
                          Density (g/cm3)  =   0.99954
                        Activity of water  =   0.995
                           Ionic strength  =  1.382e-001
                       Mass of water (kg)  =  1.000e+000
                 Total alkalinity (eq/kg)  = -1.382e-001
                    Total carbon (mol/kg)  =  0.000e+000
                       Total CO2 (mol/kg)  =  0.000e+000
                      Temperature (deg C)  =  25.00
                  Electrical balance (eq)  =  1.770e-015
 Percent error, 100*(Cat-|An|)/(Cat+|An|)  =   0.00
                               Iterations  =  15
                                  Total H  = 1.111506e+002
                                  Total O  = 5.550622e+001

----------------------------Distribution of species----------------------------

                                               Log       Log       Log    mole V
   Species          Molality    Activity  Molality  Activity     Gamma   cm3/mol

   H+             1.382e-001  1.122e-001    -0.859    -0.950    -0.090      0.00
   OH-            1.207e-013  8.887e-014   -12.918   -13.051    -0.133     -3.54
   H2O            5.551e+001  9.953e-001     1.744    -0.002     0.000     18.07
Cl           1.382e-001
   Cl-            1.382e-001  1.023e-001    -0.859    -0.990    -0.131     18.38
H(0)         5.071e-039
   H2             2.536e-039  2.618e-039   -38.596   -38.582     0.014     28.61
O(0)         1.168e-015
   O2             5.838e-016  6.027e-016   -15.234   -15.220     0.014     30.40

------------------------------Saturation indices-------------------------------

	Phase               SI   log IAP   log K(298 K,   1 atm)

	H2(g)           -35.48    -38.58   -3.10  H2
	H2O(g)           -1.50     -0.00    1.50  H2O
	O2(g)           -12.33    -15.22   -2.89  O2


Reaction step 28.

Using solution 1.	
Using temperature 1.	
Using pressure 1.	
Using reaction 1.	

Reaction 1.	

	 1.484e-001 moles of the following reaction have been added:

	                 Relative
	Reactant            moles

	HCl                  1.00000

	                 Relative
	Element             moles
	Cl                   1.00000
	H                    1.00000

-----------------------------Solution composition------------------------------

	Elements           Molality       Moles

	Cl               1.484e-001  1.484e-001

----------------------------Description of solution----------------------------

                                       pH  =   0.921      Charge balance
                                       pe  =  16.832      Adjusted to redox equilibrium
       Specific Conductance (uS/cm, 25 oC) = 55094
                          Density (g/cm3)  =   0.99972
                        Activity of water  =   0.995
                           Ionic strength  =  1.484e-001
                       Mass of water (kg)  =  1.000e+000
                 Total alkalinity (eq/kg)  = -1.484e-001
                    Total carbon (mol/kg)  =  0.000e+000
                       Total CO2 (mol/kg)  =  0.000e+000
                      Temperature (deg C)  =  25.00
                  Electrical balance (eq)  =  1.233e-017
 Percent error, 100*(Cat-|An|)/(Cat+|An|)  =   0.00
                               Iterations  =  15
                                  Total H  = 1.111608e+002
                                  Total O  = 5.550622e+001

[...]

	 2.500e-001 moles of the following reaction have been added:

	                 Relative
	Reactant            moles

	CaCl2                1.00000

	                 Relative
	Element             moles
	Ca                   1.00000
	Cl                   2.00000

-----------------------------Solution composition------------------------------

	Elements           Molality       Moles

	Ca               1.640e+000  1.640e+000
	Cl               3.280e+000  3.280e+000

----------------------------Description of solution----------------------------

                                       pH  =   6.605      Charge balance
                                       pe  =  11.619      Adjusted to redox equilibrium
       Specific Conductance (uS/cm, 25 oC) = 200530
                          Density (g/cm3)  =   1.13853
                        Activity of water  =   0.916
                           Ionic strength  =  4.920e+000
                       Mass of water (kg)  =  1.000e+000
                 Total alkalinity (eq/kg)  =  7.415e-016
                    Total carbon (mol/kg)  =  0.000e+000
                       Total CO2 (mol/kg)  =  0.000e+000
                      Temperature (deg C)  =  25.00
                  Electrical balance (eq)  = -1.193e-013
 Percent error, 100*(Cat-|An|)/(Cat+|An|)  =  -0.00
                               Iterations  =   5
                                  Total H  = 1.110124e+002
                                  Total O  = 5.550622e+001

----------------------------Distribution of species----------------------------

                                               Log       Log       Log    mole V
   Species          Molality    Activity  Molality  Activity     Gamma   cm3/mol

   H+             3.508e-007  2.485e-007    -6.455    -6.605    -0.150      0.00
   OH-            7.689e-008  3.692e-008    -7.114    -7.433    -0.319     (0)  
   H2O            5.551e+001  9.164e-001     1.744    -0.038     0.000     18.07
Ca           1.640e+000
   Ca+2           1.640e+000  1.127e+000     0.215     0.052    -0.163     -8.19
   CaOH+          2.739e-007  6.899e-007    -6.562    -6.161     0.401     (0)  
Cl           3.280e+000
   Cl-            3.280e+000  1.866e+000     0.516     0.271    -0.245     14.84
H(0)         0.000e+000
   H2             0.000e+000  2.533e-040   -40.088   -39.596     0.492     (0)  
O(0)         3.516e-014
   O2             1.758e-014  5.457e-014   -13.755   -13.263     0.492     (0)  

------------------------------Saturation indices-------------------------------

	Phase               SI   log IAP   log K(298 K,   1 atm)

	H2(g)           -36.45    -39.60   -3.15  H2
	H2O(g)           -1.55     -0.04    1.51  H2O
	O2(g)           -10.37    -13.26   -2.89  O2


Reaction step 18.

Using solution 1.	
Using reaction 1.	

Reaction 1.	

	 2.500e-001 moles of the following reaction have been added:

	                 Relative
	Reactant            moles

	CaCl2                1.00000

	                 Relative
	Element             moles
	Ca                   1.00000
	Cl                   2.00000

-----------------------------Solution composition------------------------------

	Elements           Molality       Moles

	Ca               1.890e+000  1.890e+000
	Cl               3.780e+000  3.780e+000

----------------------------Description of solution----------------------------

                                       pH  =   6.583      Charge balance
                                       pe  =  11.683      Adjusted to redox equilibrium
       Specific Conductance (uS/cm, 25 oC) = 271735
                          Density (g/cm3)  =   1.16016
                        Activity of water  =   0.904
                           Ionic strength  =  5.670e+000
                       Mass of water (kg)  =  1.000e+000
                 Total alkalinity (eq/kg)  =  5.270e-016
                    Total carbon (mol/kg)  =  0.000e+000
                       Total CO2 (mol/kg)  =  0.000e+000
                      Temperature (deg C)  =  25.00
                  Electrical balance (eq)  = -1.218e-013
 Percent error, 100*(Cat-|An|)/(Cat+|An|)  =  -0.00
                               Iterations  =   5
                                  Total H  = 1.110124e+002
                                  Total O  = 5.550622e+001

----------------------------Distribution of species----------------------------

                                               Log       Log       Log    mole V
   Species          Molality    Activity  Molality  Activity     Gamma   cm3/mol

   H+             3.703e-007  2.615e-007    -6.431    -6.583    -0.151      0.00
   OH-            7.310e-008  3.459e-008    -7.136    -7.461    -0.325     (0)  
   H2O            5.551e+001  9.036e-001     1.744    -0.044     0.000     18.07
Ca           1.890e+000
   Ca+2           1.890e+000  1.670e+000     0.276     0.223    -0.054     -7.38
   CaOH+          2.972e-007  9.580e-007    -6.527    -6.019     0.508     (0)  
Cl           3.780e+000
   Cl-            3.780e+000  2.176e+000     0.577     0.338    -0.240     14.21
H(0)         0.000e+000
   H2             0.000e+000  2.087e-040   -40.248   -39.681     0.567     (0)  
O(0)         4.237e-014
   O2             2.118e-014  7.817e-014   -13.674   -13.107     0.567     (0)  

------------------------------Saturation indices-------------------------------

	Phase               SI   log IAP   log K(298 K,   1 atm)

	H2(g)           -36.53    -39.68   -3.15  H2
	H2O(g)           -1.55     -0.04    1.51  H2O
	O2(g)           -10.21    -13.11   -2.89  O2


Reaction step 19.

Using solution 1.	
Using reaction 1.	

Reaction 1.	

	 2.500e-001 moles of the following reaction have been added:

	                 Relative
	Reactant            moles

	CaCl2                1.00000

	                 Relative
	Element             moles
	Ca                   1.00000
	Cl                   2.00000

-----------------------------Solution composition------------------------------

	Elements           Molality       Moles

	Ca               2.140e+000  2.140e+000
	Cl               4.280e+000  4.280e+000

----------------------------Description of solution----------------------------

                                       pH  =   6.562      Charge balance
                                       pe  =  11.723      Adjusted to redox equilibrium
       Specific Conductance (uS/cm, 25 oC) = 338290
                          Density (g/cm3)  =   1.18199
                        Activity of water  =   0.891
                           Ionic strength  =  6.420e+000
                       Mass of water (kg)  =  1.000e+000
                 Total alkalinity (eq/kg)  =  1.535e-015
                    Total carbon (mol/kg)  =  0.000e+000
                       Total CO2 (mol/kg)  =  0.000e+000
                      Temperature (deg C)  =  25.00
                  Electrical balance (eq)  = -1.233e-013
 Percent error, 100*(Cat-|An|)/(Cat+|An|)  =  -0.00
                               Iterations  =   5
                                  Total H  = 1.110124e+002
                                  Total O  = 5.550622e+001

----------------------------Distribution of species----------------------------

                                               Log       Log       Log    mole V
   Species          Molality    Activity  Molality  Activity     Gamma   cm3/mol

   H+             3.888e-007  2.738e-007    -6.410    -6.562    -0.152      0.00
   OH-            6.967e-008  3.257e-008    -7.157    -7.487    -0.330     (0)  
   H2O            5.551e+001  8.909e-001     1.744    -0.050     0.000     18.07
Ca           2.140e+000
   Ca+2           2.140e+000  2.445e+000     0.330     0.388     0.058     -6.61
   CaOH+          3.191e-007  1.320e-006    -6.496    -5.879     0.617     (0)  
Cl           4.280e+000
   Cl-            4.280e+000  2.497e+000     0.631     0.397    -0.234     13.58
H(0)         0.000e+000
   H2             0.000e+000  1.898e-040   -40.364   -39.722     0.642     (0)  
O(0)         4.187e-014
   O2             2.093e-014  9.180e-014   -13.679   -13.037     0.642     (0)  

------------------------------Saturation indices-------------------------------

	Phase               SI   log IAP   log K(298 K,   1 atm)

	H2(g)           -36.57    -39.72   -3.15  H2
	H2O(g)           -1.56     -0.05    1.51  H2O
	O2(g)           -10.14    -13.04   -2.89  O2


Reaction step 20.

Using solution 1.	
Using reaction 1.	

Reaction 1.	

	 2.500e-001 moles of the following reaction have been added:

	                 Relative
	Reactant            moles

	CaCl2                1.00000

	                 Relative
	Element             moles
	Ca                   1.00000
	Cl                   2.00000

-----------------------------Solution composition------------------------------

	Elements           Molality       Moles

	Ca               2.390e+000  2.390e+000
	Cl               4.780e+000  4.780e+000

----------------------------Description of solution----------------------------

                                       pH  =   6.544      Charge balance
                                       pe  =  11.743      Adjusted to redox equilibrium
       Specific Conductance (uS/cm, 25 oC) = 374472
                          Density (g/cm3)  =   1.20407
                        Activity of water  =   0.878
                           Ionic strength  =  7.170e+000
                       Mass of water (kg)  =  1.000e+000
                 Total alkalinity (eq/kg)  =  1.713e-015
                    Total carbon (mol/kg)  =  0.000e+000
                       Total CO2 (mol/kg)  =  0.000e+000
                      Temperature (deg C)  =  25.00
                  Electrical balance (eq)  = -1.218e-013
 Percent error, 100*(Cat-|An|)/(Cat+|An|)  =  -0.00
                               Iterations  =   5
                                  Total H  = 1.110124e+002
                                  Total O  = 5.550622e+001

----------------------------Distribution of species----------------------------

                                               Log       Log       Log    mole V
   Species          Molality    Activity  Molality  Activity     Gamma   cm3/mol

   H+             4.065e-007  2.857e-007    -6.391    -6.544    -0.153      0.00
   OH-            6.653e-008  3.077e-008    -7.177    -7.512    -0.335     (0)  
   H2O            5.551e+001  8.781e-001     1.744    -0.056     0.000     18.07
Ca           2.390e+000
   Ca+2           2.390e+000  3.544e+000     0.378     0.549     0.171     -5.87
   CaOH+          3.399e-007  1.808e-006    -6.469    -5.743     0.726     (0)  
Cl           4.780e+000
   Cl-            4.780e+000  2.832e+000     0.679     0.452    -0.227     12.95
H(0)         0.000e+000
   H2             0.000e+000  1.886e-040   -40.441   -39.724     0.717     (0)  
O(0)         3.467e-014
   O2             1.734e-014  9.035e-014   -13.761   -13.044     0.717     (0)  

------------------------------Saturation indices-------------------------------

	Phase               SI   log IAP   log K(298 K,   1 atm)

	H2(g)           -36.57    -39.72   -3.15  H2
	H2O(g)           -1.57     -0.06    1.51  H2O
	O2(g)           -10.15    -13.04   -2.89  O2


Reaction step 21.

Using solution 1.	
Using reaction 1.	

Reaction 1.	

	 2.500e-001 moles of the following reaction have been added:

	                 Relative
	Reactant            moles

	CaCl2                1.00000

	                 Relative
	Element             moles
	Ca                   1.00000
	Cl                   2.00000

-----------------------------Solution composition------------------------------

	Elements           Molality       Moles

	Ca               2.640e+000  2.640e+000
	Cl               5.280e+000  5.280e+000

----------------------------Description of solution----------------------------

                                       pH  =   6.527      Charge balance
                                       pe  =  11.802      Adjusted to redox equilibrium
       Specific Conductance (uS/cm, 25 oC) = 411224
                          Density (g/cm3)  =   1.22642
                        Activity of water  =   0.865
                           Ionic strength  =  7.920e+000
                       Mass of water (kg)  =  1.000e+000
                 Total alkalinity (eq/kg)  =  2.186e-015
                    Total carbon (mol/kg)  =  0.000e+000
                       Total CO2 (mol/kg)  =  0.000e+000
                      Temperature (deg C)  =  25.00
                  Electrical balance (eq)  = -1.207e-013
 Percent error, 100*(Cat-|An|)/(Cat+|An|)  =  -0.00
                               Iterations  =   5
                                  Total H  = 1.110124e+002
                                  Total O  = 5.550622e+001

----------------------------Distribution of species----------------------------

                                               Log       Log       Log    mole V
   Species          Molality    Activity  Molality  Activity     Gamma   cm3/mol

   H+             4.235e-007  2.970e-007    -6.373    -6.527    -0.154      0.00
   OH-            6.364e-008  2.916e-008    -7.196    -7.535    -0.339     (0)  
   H2O            5.551e+001  8.654e-001     1.744    -0.063     0.000     18.07
Ca           2.640e+000
   Ca+2           2.640e+000  5.096e+000     0.422     0.707     0.286     -5.16
   CaOH+          3.598e-007  2.464e-006    -6.444    -5.608     0.836     (0)  
Cl           5.280e+000
   Cl-            5.280e+000  3.181e+000     0.723     0.503    -0.220     12.30
H(0)         0.000e+000
   H2             0.000e+000  1.558e-040   -40.600   -39.808     0.792     (0)  
O(0)         4.154e-014
   O2             2.077e-014  1.287e-013   -13.683   -12.891     0.792     (0)  

------------------------------Saturation indices-------------------------------

	Phase               SI   log IAP   log K(298 K,   1 atm)

	H2(g)           -36.66    -39.81   -3.15  H2
	H2O(g)           -1.57     -0.06    1.51  H2O
	O2(g)           -10.00    -12.89   -2.89  O2


Reaction step 22.

Using solution 1.	
Using reaction 1.	

Reaction 1.	

	 2.500e-001 moles of the following reaction have been added:

	                 Relative
	Reactant            moles

	CaCl2                1.00000

	                 Relative
	Element             moles
	Ca                   1.00000
	Cl                   2.00000

-----------------------------Solution composition------------------------------

	Elements           Molality       Moles

	Ca               2.890e+000  2.890e+000
	Cl               5.780e+000  5.780e+000

----------------------------Description of solution----------------------------

                                       pH  =   6.511      Charge balance
                                       pe  =  11.858      Adjusted to redox equilibrium
       Specific Conductance (uS/cm, 25 oC) = 448698
                          Density (g/cm3)  =   1.24909
                        Activity of water  =   0.853
                           Ionic strength  =  8.670e+000
                       Mass of water (kg)  =  1.000e+000
                 Total alkalinity (eq/kg)  =  1.209e-015
                    Total carbon (mol/kg)  =  0.000e+000
                       Total CO2 (mol/kg)  =  0.000e+000
                      Temperature (deg C)  =  25.00
                  Electrical balance (eq)  = -1.233e-013
 Percent error, 100*(Cat-|An|)/(Cat+|An|)  =  -0.00
                               Iterations  =   5
                                  Total H  = 1.110124e+002
                                  Total O  = 5.550622e+001

----------------------------Distribution of species----------------------------

                                               Log       Log       Log    mole V
   Species          Molality    Activity  Molality  Activity     Gamma   cm3/mol

   H+             4.399e-007  3.080e-007    -6.357    -6.511    -0.155      0.00
   OH-            6.097e-008  2.771e-008    -7.215    -7.557    -0.342     (0)  
   H2O            5.551e+001  8.526e-001     1.744    -0.069     0.000     18.07
Ca           2.890e+000
   Ca+2           2.890e+000  7.281e+000     0.461     0.862     0.401     -4.48
   CaOH+          3.789e-007  3.345e-006    -6.421    -5.476     0.946     (0)  
Cl           5.780e+000
   Cl-            5.780e+000  3.544e+000     0.762     0.550    -0.212     11.65
H(0)         0.000e+000
   H2             0.000e+000  1.294e-040   -40.755   -39.888     0.867     (0)  
O(0)         4.913e-014
   O2             2.457e-014  1.809e-013   -13.610   -12.743     0.867     (0)  

------------------------------Saturation indices-------------------------------

	Phase               SI   log IAP   log K(298 K,   1 atm)

	H2(g)           -36.74    -39.89   -3.15  H2
	H2O(g)           -1.58     -0.07    1.51  H2O
	O2(g)            -9.85    -12.74   -2.89  O2


Reaction step 23.

Using solution 1.	
Using reaction 1.	

Reaction 1.	

	 2.500e-001 moles of the following reaction have been added:

	                 Relative
	Reactant            moles

	CaCl2                1.00000

	                 Relative
	Element             moles
	Ca                   1.00000
	Cl                   2.00000

-----------------------------Solution composition------------------------------

	Elements           Molality       Moles

	Ca               3.140e+000  3.140e+000
	Cl               6.280e+000  6.280e+000

----------------------------Description of solution----------------------------

                                       pH  =   6.497      Charge balance
                                       pe  =  11.895      Adjusted to redox equilibrium
       Specific Conductance (uS/cm, 25 oC) = 487045
                          Density (g/cm3)  =   1.27212
                        Activity of water  =   0.840
                           Ionic strength  =  9.420e+000
                       Mass of water (kg)  =  1.000e+000
                 Total alkalinity (eq/kg)  =  8.865e-016
                    Total carbon (mol/kg)  =  0.000e+000
                       Total CO2 (mol/kg)  =  0.000e+000
                      Temperature (deg C)  =  25.00
                  Electrical balance (eq)  = -1.234e-013
 Percent error, 100*(Cat-|An|)/(Cat+|An|)  =  -0.00
                               Iterations  =   5
                                  Total H  = 1.110124e+002
                                  Total O  = 5.550622e+001

----------------------------Distribution of species----------------------------

                                               Log       Log       Log    mole V
   Species          Molality    Activity  Molality  Activity     Gamma   cm3/mol

   H+             4.557e-007  3.186e-007    -6.341    -6.497    -0.155      0.00
   OH-            5.849e-008  2.639e-008    -7.233    -7.579    -0.346     (0)  
   H2O            5.551e+001  8.399e-001     1.744    -0.076     0.000     18.07
Ca           3.140e+000
   Ca+2           3.140e+000  1.035e+001     0.497     1.015     0.518     -3.81
   CaOH+          3.972e-007  4.525e-006    -6.401    -5.344     1.057     (0)  
Cl           6.280e+000
   Cl-            6.280e+000  3.923e+000     0.798     0.594    -0.204     10.99
H(0)         0.000e+000
   H2             0.000e+000  1.168e-040   -40.875   -39.933     0.942     (0)  
O(0)         4.929e-014
   O2             2.465e-014  2.157e-013   -13.608   -12.666     0.942     (0)  

------------------------------Saturation indices-------------------------------

	Phase               SI   log IAP   log K(298 K,   1 atm)

	H2(g)           -36.78    -39.93   -3.15  H2
	H2O(g)           -1.59     -0.08    1.51  H2O
	O2(g)            -9.77    -12.67   -2.89  O2


------------------
End of simulation.
------------------

------------------------------------
Reading input data for simulation 9.
------------------------------------

-------------------------------
End of Run after 5.761 Seconds.
-------------------------------

