WARNING: Database file from DATABASE keyword is used; command line argument ignored.
   Input file: Vm_salt
  Output file: Vm_salt.out
Database file: ../database/Amm.dat

------------------
Reading data base.
------------------

	SOLUTION_MASTER_SPECIES
	SOLUTION_SPECIES
	PHASES
	EXCHANGE_MASTER_SPECIES
	EXCHANGE_SPECIES
	SURFACE_MASTER_SPECIES
	SURFACE_SPECIES
	RATES
	END
------------------------------------
Reading input data for simulation 1.
------------------------------------

	DATABASE ../database/Amm.dat
	SELECTED_OUTPUT 101
	    file                 Vm_salt_101.sel
	USER_PUNCH 101
	    headings Mu SC
	    start
	10 PUNCH STR_F$(MU, 20, 12)
	20 PUNCH STR_F$(SC, 20, 10)
	    end
	SOLUTION 1
	 pH 7 charge
	END
-------------------------------------------
Beginning of initial solution calculations.
-------------------------------------------

Initial solution 1.	

-----------------------------Solution composition------------------------------

	Elements           Molality       Moles

	Pure water     

----------------------------Description of solution----------------------------

                                       pH  =   6.997      Charge balance
                                       pe  =   4.000    
      Specific Conductance (µS/cm,  25°C)  = 0
                          Density (g/cm³)  =   0.99704
                               Volume (L)  =   1.00297
                        Activity of water  =   1.000
                 Ionic strength (mol/kgw)  =   1.006e-07
                       Mass of water (kg)  =   1.000e+00
                 Total alkalinity (eq/kg)  =   3.040e-17
                         Temperature (°C)  =  25.00
                  Electrical balance (eq)  =  -3.040e-17
 Percent error, 100*(Cat-|An|)/(Cat+|An|)  =  -0.00
                               Iterations  =   2
                                  Total H  = 1.110124e+02
                                  Total O  = 5.550622e+01

----------------------------Distribution of species----------------------------

                                               Log       Log       Log    mole V
   Species          Molality    Activity  Molality  Activity     Gamma   cm³/mol

   OH-             1.006e-07   1.006e-07    -6.997    -6.997    -0.000     -4.14
   H+              1.006e-07   1.006e-07    -6.997    -6.997    -0.000      0.00
   H2O             5.551e+01   1.000e+00     1.744    -0.000     0.000     18.07
H(0)          1.433e-25
   H2              7.166e-26   7.166e-26   -25.145   -25.145     0.000     28.61
O(0)          0.000e+00
   O2              0.000e+00   0.000e+00   -42.090   -42.090     0.000     30.40

------------------------------Saturation indices-------------------------------

  Phase               SI** log IAP   log K(298 K,   1 atm)

  H2(g)           -22.04    -25.14   -3.10  H2
  H2O(g)           -1.50     -0.00    1.50  H2O
  O2(g)           -39.20    -42.09   -2.89  O2

**For a gas, SI = log10(fugacity). Fugacity = pressure * phi / 1 atm.
  For ideal gases, phi = 1.

------------------
End of simulation.
------------------

------------------------------------
Reading input data for simulation 2.
------------------------------------

	USE solution 1
	REACTION_TEMPERATURE
	 25.000000
	REACTION_PRESSURE
	 0.000000
	REACTION
	 HCl 1
	0 0.003345556 0.003509761 0.005804099 0.008152915  0.010050 0.010902557 0.019919104 0.020320 0.020722728 0.02917534 0.030010 0.039640309 0.040000 0.050500 0.057650 0.06183938 0.075390 0.079690 0.079931544 0.090713565 
	0.098980 0.100100 0.115900 0.124000 0.125650 0.138200 0.148360 0.148800 0.152170 0.198440 0.201350 0.217600 0.221790 0.230300 0.256600 0.258580 0.305100 0.317000 0.343670 0.376200 0.378892 0.378799 0.378888 0.400010 0.498090 0.564460 0.596830 0.608000 0.613160 0.634710 0.633689 0.696000 0.697270 0.793200 0.799170 0.892377 0.898500 0.900260 0.968600 0.968790 1.022200 1.154549 1.203100 1.276120 1.483900 1.618400 1.851100 1.954635 1.962320 2.095800 2.114800 2.195000 2.226783 2.264800 2.395500 2.457900 2.520000 2.764100 2.957400 3.014700 3.060917 3.191000 3.345673 3.852700 4.216778 4.216452 4.512961 4.631400 4.813464 4.813347 4.912400 5.116893 5.116862 5.316000 5.424050 5.423779 5.734175 5.734149 6.006400 6.048032 6.365700 6.625300 6.713663 6.734294 6.836000 6.963957 7.041466 7.372793 7.616000 7.708123 8.047887 8.391121 8.447000 8.739741 9.092376 9.294900 9.448106 9.810296
	USER_GRAPH
	 -headings HCl
	-axis_titles "(Ionic Strength)^0.5 / (mol/kg H2O)^0.5" "molar volume / (cm3/mol)"
	-axis_scale x_axis 0 3
	-axis_scale y_axis 14 32
	10 data 0, 18.03, 17.947, 17.955, 18.019, 18.003401, 18.053, 18.089, 18.151590, 18.104, 18.1, 18.144103, 18.128, 18.147104, 18.260570, 18.193491, 18.172, 18.291331, 18.251638, 18.221, 18.226, 18.293496, 18.360171, 18.172784, 18.401682, 18.425164, 18.400000, 18.375462, 18.421767, 18.420000, 18.441524, 18.551196, 18.351572, 18.520000, 18.528130, 18.509595, 18.540000, 18.580000, 18.569794, 18.630000, 18.620087, 18.644680, 18.706760, 18.620617, 18.639675, 18.709022, 18.752466, 18.771139, 18.739918, 18.796572, 18.809065, 18.800181, 18.824530, 18.848829, 18.872334, 18.907554, 18.920422, 18.929376, 18.966125, 18.966871, 18.949297, 18.997995, 19.038362, 19.041280, 19.127097, 19.158526, 19.205842, 19.278155, 19.266918, 19.279682, 19.347808, 19.347989, 19.369001, 19.338937, 19.385524, 19.408502, 19.421342, 19.382531, 19.461480, 19.475456, 19.547519, 19.560486, 19.604451, 19.618635, 19.722417, 19.824761, 19.823639, 19.863619, 19.868453, 19.915521, 19.922431, 19.912622, 19.978912, 19.972591, 20.022080, 20.004175, 20.065494, 20.064079, 20.049594, 20.081165, 20.113426, 20.155812, 20.162891, 20.205003, 20.202267, 20.233798, 20.229769, 20.244985, 20.285265, 20.285097, 20.325116, 20.361456, 20.402034, 20.376488, 20.436253, 20.473638, 20.464062, 20.509998, 20.547910,
	20 dim d(119)
	30 read d(1), d(2), d(3), d(4), d(5), d(6), d(7), d(8), d(9), d(10), d(11), d(12), d(13), d(14), d(15), d(16), d(17), d(18), d(19), d(20), d(21), d(22), d(23), d(24), d(25), d(26), d(27), d(28), d(29), d(30), d(31), d(32), d(33), d(34), d(35), d(36), d(37), d(38), d(39), d(40), d(41), d(42), d(43), d(44), d(45), d(46), d(47), d(48), d(49), d(50), d(51), d(52), d(53), d(54), d(55), d(56), d(57), d(58), d(59), d(60), d(61), d(62), d(63), d(64), d(65), d(66), d(67), d(68), d(69), d(70), d(71), d(72), d(73), d(74), d(75), d(76), d(77), d(78), d(79), d(80), d(81), d(82), d(83), d(84), d(85), d(86), d(87), d(88), d(89), d(90), d(91), d(92), d(93), d(94), d(95), d(96), d(97), d(98), d(99), d(100), d(101), d(102), d(103), d(104), d(105), d(106), d(107), d(108), d(109), d(110), d(111), d(112), d(113), d(114), d(115), d(116), d(117), d(118), d(119)
	40 if step_no = 1 then put(rho, 10)
	50 if step_no > 1 then Vmol = (1e3 + tot("Cl") * 36.461) / (tot("Cl") * rho) - 1e3 / (tot("Cl") * get(10))
	60 if step_no = 1 then dif = 0 else dif = Vmol - d(step_no)
	62 if tot("Cl") > 10 or tc > 200 then goto 150
	100 if step_no = 1 then goto 150
	102 Vmol = Vm("Cl-")
	110 plot_xy mu^0.5, d(step_no), symbol = Triangle, line_w = 0, color = Blue
	120 plot_xy mu^0.5, Vmol, symbol = None, color = Blue, line_width = 2
	122 if step_no > 3 then goto 150
	130 V0 = 18.02
	134 if step_no = 2 then plot_xy 0, V0, symbol = None, color = Blue, line_width = 2 else                        plot_xy 4, V0 + DH_Av * 4 * 0.5, symbol = None, color = Blue, line_width = 1
	150 end
	END
-----------------------------------------
Beginning of batch-reaction calculations.
-----------------------------------------

Reaction step 1.

Using solution 1.	
Using temperature 1.	
Using pressure 1.	
Using reaction 1.	

Reaction 1.	

	  0.000e+00 moles of the following reaction have been added:

	                 Relative
	Reactant            moles

	HCl                  1.00000

	                 Relative
	Element             moles
	Cl                   1.00000
	H                    1.00000

-----------------------------Solution composition------------------------------

	Elements           Molality       Moles

	Pure water     

----------------------------Description of solution----------------------------

                                       pH  =   6.997      Charge balance
                                       pe  =   4.000      Adjusted to redox equilibrium
      Specific Conductance (µS/cm,  25°C)  = 0
                          Density (g/cm³)  =   0.99700
                               Volume (L)  =   1.00301
                        Activity of water  =   1.000
                 Ionic strength (mol/kgw)  =   1.006e-07
                       Mass of water (kg)  =   1.000e+00
                 Total alkalinity (eq/kg)  =   3.146e-17
                         Temperature (°C)  =  25.00
                           Pressure (atm)  =  0.03
                  Electrical balance (eq)  =  -3.146e-17
 Percent error, 100*(Cat-|An|)/(Cat+|An|)  =  -0.00
                               Iterations  =   0
                                  Total H  = 1.110124e+02
                                  Total O  = 5.550622e+01

----------------------------Distribution of species----------------------------

                                               Log       Log       Log    mole V
   Species          Molality    Activity  Molality  Activity     Gamma   cm³/mol

   OH-             1.006e-07   1.006e-07    -6.997    -6.997    -0.000     -4.14
   H+              1.006e-07   1.006e-07    -6.997    -6.997    -0.000      0.00
   H2O             5.551e+01   1.000e+00     1.744    -0.000     0.000     18.07
H(0)          1.433e-25
   H2              7.166e-26   7.166e-26   -25.145   -25.145     0.000     28.61
O(0)          0.000e+00
   O2              0.000e+00   0.000e+00   -42.090   -42.090     0.000     30.40

------------------------------Saturation indices-------------------------------

  Phase               SI** log IAP   log K(298 K,   0 atm)

  H2(g)           -22.04    -25.14   -3.10  H2
  H2O(g)           -1.50     -0.00    1.50  H2O
  O2(g)           -39.20    -42.09   -2.89  O2

**For a gas, SI = log10(fugacity). Fugacity = pressure * phi / 1 atm.
  For ideal gases, phi = 1.

Reaction step 2.

Using solution 1.	
Using temperature 1.	
Using pressure 1.	
Using reaction 1.	

Reaction 1.	

	  3.346e-03 moles of the following reaction have been added:

	                 Relative
	Reactant            moles

	HCl                  1.00000

	                 Relative
	Element             moles
	Cl                   1.00000
	H                    1.00000

-----------------------------Solution composition------------------------------

	Elements           Molality       Moles

	Cl                3.346e-03   3.346e-03

----------------------------Description of solution----------------------------

                                       pH  =   2.501      Charge balance
                                       pe  =  15.087      Adjusted to redox equilibrium
      Specific Conductance (µS/cm,  25°C)  = 1398
                          Density (g/cm³)  =   0.99706
                               Volume (L)  =   1.00307
                        Activity of water  =   1.000
                 Ionic strength (mol/kgw)  =   3.346e-03
                       Mass of water (kg)  =   1.000e+00
                 Total alkalinity (eq/kg)  =  -3.346e-03
                         Temperature (°C)  =  25.00
                           Pressure (atm)  =  0.03
                  Electrical balance (eq)  =   2.857e-11
 Percent error, 100*(Cat-|An|)/(Cat+|An|)  =   0.00
                               Iterations  =  13
                                  Total H  = 1.110158e+02
                                  Total O  = 5.550622e+01

----------------------------Distribution of species----------------------------

                                               Log       Log       Log    mole V
   Species          Molality    Activity  Molality  Activity     Gamma   cm³/mol

   H+              3.346e-03   3.157e-03    -2.476    -2.501    -0.025      0.00
   OH-             3.417e-12   3.206e-12   -11.466   -11.494    -0.028     -4.08
   H2O             5.551e+01   9.999e-01     1.744    -0.000     0.000     18.07
Cl            3.346e-03
   Cl-             3.346e-03   3.140e-03    -2.476    -2.503    -0.028     18.10
H(0)          9.458e-39
   H2              4.729e-39   4.733e-39   -38.325   -38.325     0.000     28.61
O(0)          3.718e-16
   O2              1.859e-16   1.861e-16   -15.731   -15.730     0.000     30.40

------------------------------Saturation indices-------------------------------

  Phase               SI** log IAP   log K(298 K,   0 atm)

  H2(g)           -35.22    -38.32   -3.10  H2
  H2O(g)           -1.50     -0.00    1.50  H2O
  O2(g)           -12.84    -15.73   -2.89  O2

**For a gas, SI = log10(fugacity). Fugacity = pressure * phi / 1 atm.
  For ideal gases, phi = 1.

Reaction step 3.

Using solution 1.	
Using temperature 1.	
Using pressure 1.	
Using reaction 1.	

Reaction 1.	

	  3.510e-03 moles of the following reaction have been added:

	                 Relative
	Reactant            moles

	HCl                  1.00000

	                 Relative
	Element             moles
	Cl                   1.00000
	H                    1.00000

-----------------------------Solution composition------------------------------

	Elements           Molality       Moles

	Cl                3.510e-03   3.510e-03

----------------------------Description of solution----------------------------

                                       pH  =   2.480      Charge balance
                                       pe  =   3.306      Adjusted to redox equilibrium
      Specific Conductance (µS/cm,  25°C)  = 1466
                          Density (g/cm³)  =   0.99706
                               Volume (L)  =   1.00307
                        Activity of water  =   1.000
                 Ionic strength (mol/kgw)  =   3.510e-03
                       Mass of water (kg)  =   1.000e+00
                 Total alkalinity (eq/kg)  =  -3.510e-03
                         Temperature (°C)  =  25.00
                           Pressure (atm)  =  0.03
                  Electrical balance (eq)  =   6.439e-14
 Percent error, 100*(Cat-|An|)/(Cat+|An|)  =   0.00
                               Iterations  =  12
                                  Total H  = 1.110159e+02
                                  Total O  = 5.550622e+01

----------------------------Distribution of species----------------------------

                                               Log       Log       Log    mole V
   Species          Molality    Activity  Molality  Activity     Gamma   cm³/mol

   H+              3.510e-03   3.308e-03    -2.455    -2.480    -0.026      0.00
   OH-             3.265e-12   3.059e-12   -11.486   -11.514    -0.028     -4.08
   H2O             5.551e+01   9.999e-01     1.744    -0.000     0.000     18.07
Cl            3.510e-03
   Cl-             3.510e-03   3.289e-03    -2.455    -2.483    -0.028     18.10
H(0)          3.788e-15
   H2              1.894e-15   1.896e-15   -14.723   -14.722     0.000     28.61
O(0)          0.000e+00
   O2              0.000e+00   0.000e+00   -62.936   -62.936     0.000     30.40

------------------------------Saturation indices-------------------------------

  Phase               SI** log IAP   log K(298 K,   0 atm)

  H2(g)           -11.62    -14.72   -3.10  H2
  H2O(g)           -1.50     -0.00    1.50  H2O
  O2(g)           -60.04    -62.94   -2.89  O2

**For a gas, SI = log10(fugacity). Fugacity = pressure * phi / 1 atm.
  For ideal gases, phi = 1.

Reaction step 4.

Using solution 1.	
Using temperature 1.	
Using pressure 1.	
Using reaction 1.	

Reaction 1.	

	  5.804e-03 moles of the following reaction have been added:

	                 Relative
	Reactant            moles

	HCl                  1.00000

	                 Relative
	Element             moles
	Cl                   1.00000
	H                    1.00000

-----------------------------Solution composition------------------------------

	Elements           Molality       Moles

	Cl                5.804e-03   5.804e-03

----------------------------Description of solution----------------------------

                                       pH  =   2.268      Charge balance
                                       pe  =   3.620      Adjusted to redox equilibrium
      Specific Conductance (µS/cm,  25°C)  = 2413
                          Density (g/cm³)  =   0.99711
                               Volume (L)  =   1.00311
                        Activity of water  =   1.000
                 Ionic strength (mol/kgw)  =   5.804e-03
                       Mass of water (kg)  =   1.000e+00
                 Total alkalinity (eq/kg)  =  -5.804e-03
                         Temperature (°C)  =  25.00
                           Pressure (atm)  =  0.03
                  Electrical balance (eq)  =  -2.636e-17
 Percent error, 100*(Cat-|An|)/(Cat+|An|)  =  -0.00
                               Iterations  =  11
                                  Total H  = 1.110182e+02
                                  Total O  = 5.550622e+01

----------------------------Distribution of species----------------------------

                                               Log       Log       Log    mole V
   Species          Molality    Activity  Molality  Activity     Gamma   cm³/mol

   H+              5.804e-03   5.395e-03    -2.236    -2.268    -0.032      0.00
   OH-             2.036e-12   1.876e-12   -11.691   -11.727    -0.036     -4.06
   H2O             5.551e+01   9.998e-01     1.744    -0.000     0.000     18.07
Cl            5.804e-03
   Cl-             5.804e-03   5.348e-03    -2.236    -2.272    -0.036     18.12
H(0)          2.368e-15
   H2              1.184e-15   1.186e-15   -14.927   -14.926     0.001     28.61
O(0)          0.000e+00
   O2              0.000e+00   0.000e+00   -62.529   -62.528     0.001     30.40

------------------------------Saturation indices-------------------------------

  Phase               SI** log IAP   log K(298 K,   0 atm)

  H2(g)           -11.82    -14.93   -3.10  H2
  H2O(g)           -1.50     -0.00    1.50  H2O
  O2(g)           -59.64    -62.53   -2.89  O2

**For a gas, SI = log10(fugacity). Fugacity = pressure * phi / 1 atm.
  For ideal gases, phi = 1.

Reaction step 5.

Using solution 1.	
Using temperature 1.	
Using pressure 1.	
Using reaction 1.	

Reaction 1.	

	  8.153e-03 moles of the following reaction have been added:

	                 Relative
	Reactant            moles

	HCl                  1.00000

	                 Relative
	Element             moles
	Cl                   1.00000
	H                    1.00000

-----------------------------Solution composition------------------------------

	Elements           Molality       Moles

	Cl                8.153e-03   8.153e-03

----------------------------Description of solution----------------------------

                                       pH  =   2.125      Charge balance
                                       pe  =  15.627      Adjusted to redox equilibrium
      Specific Conductance (µS/cm,  25°C)  = 3375
                          Density (g/cm³)  =   0.99715
                               Volume (L)  =   1.00316
                        Activity of water  =   1.000
                 Ionic strength (mol/kgw)  =   8.153e-03
                       Mass of water (kg)  =   1.000e+00
                 Total alkalinity (eq/kg)  =  -8.153e-03
                         Temperature (°C)  =  25.00
                           Pressure (atm)  =  0.03
                  Electrical balance (eq)  =  -2.182e-17
 Percent error, 100*(Cat-|An|)/(Cat+|An|)  =  -0.00
                               Iterations  =  13
                                  Total H  = 1.110206e+02
                                  Total O  = 5.550622e+01

----------------------------Distribution of species----------------------------

                                               Log       Log       Log    mole V
   Species          Molality    Activity  Molality  Activity     Gamma   cm³/mol

   H+              8.153e-03   7.498e-03    -2.089    -2.125    -0.036      0.00
   OH-             1.486e-12   1.349e-12   -11.828   -11.870    -0.042     -4.05
   H2O             5.551e+01   9.997e-01     1.744    -0.000     0.000     18.07
Cl            8.153e-03
   Cl-             8.153e-03   7.411e-03    -2.089    -2.130    -0.041     18.13
H(0)          4.433e-39
   H2              2.217e-39   2.221e-39   -38.654   -38.653     0.001     28.61
O(0)          1.686e-15
   O2              8.432e-16   8.448e-16   -15.074   -15.073     0.001     30.40

------------------------------Saturation indices-------------------------------

  Phase               SI** log IAP   log K(298 K,   0 atm)

  H2(g)           -35.55    -38.65   -3.10  H2
  H2O(g)           -1.50     -0.00    1.50  H2O
  O2(g)           -12.18    -15.07   -2.89  O2

**For a gas, SI = log10(fugacity). Fugacity = pressure * phi / 1 atm.
  For ideal gases, phi = 1.

Reaction step 6.

Using solution 1.	
Using temperature 1.	
Using pressure 1.	
Using reaction 1.	

Reaction 1.	

	  1.005e-02 moles of the following reaction have been added:

	                 Relative
	Reactant            moles

	HCl                  1.00000

	                 Relative
	Element             moles
	Cl                   1.00000
	H                    1.00000

-----------------------------Solution composition------------------------------

	Elements           Molality       Moles

	Cl                1.005e-02   1.005e-02

----------------------------Description of solution----------------------------

                                       pH  =   2.037      Charge balance
                                       pe  =   2.837      Adjusted to redox equilibrium
      Specific Conductance (µS/cm,  25°C)  = 4149
                          Density (g/cm³)  =   0.99718
                               Volume (L)  =   1.00319
                        Activity of water  =   1.000
                 Ionic strength (mol/kgw)  =   1.005e-02
                       Mass of water (kg)  =   1.000e+00
                 Total alkalinity (eq/kg)  =  -1.005e-02
                         Temperature (°C)  =  25.00
                           Pressure (atm)  =  0.03
                  Electrical balance (eq)  =   5.161e-11
 Percent error, 100*(Cat-|An|)/(Cat+|An|)  =   0.00
                               Iterations  =  11
                                  Total H  = 1.110225e+02
                                  Total O  = 5.550622e+01

----------------------------Distribution of species----------------------------

                                               Log       Log       Log    mole V
   Species          Molality    Activity  Molality  Activity     Gamma   cm³/mol

   H+              1.005e-02   9.177e-03    -1.998    -2.037    -0.039      0.00
   OH-             1.225e-12   1.102e-12   -11.912   -11.958    -0.046     -4.04
   H2O             5.551e+01   9.997e-01     1.744    -0.000     0.000     18.07
Cl            1.005e-02
   Cl-             1.005e-02   9.050e-03    -1.998    -2.043    -0.046     18.14
H(0)          2.517e-13
   H2              1.258e-13   1.261e-13   -12.900   -12.899     0.001     28.61
O(0)          0.000e+00
   O2              0.000e+00   0.000e+00   -66.583   -66.582     0.001     30.40

------------------------------Saturation indices-------------------------------

  Phase               SI** log IAP   log K(298 K,   0 atm)

  H2(g)            -9.80    -12.90   -3.10  H2
  H2O(g)           -1.50     -0.00    1.50  H2O
  O2(g)           -63.69    -66.58   -2.89  O2

**For a gas, SI = log10(fugacity). Fugacity = pressure * phi / 1 atm.
  For ideal gases, phi = 1.

Reaction step 7.

Using solution 1.	
Using temperature 1.	
Using pressure 1.	
Using reaction 1.	

Reaction 1.	

	  1.090e-02 moles of the following reaction have been added:

	                 Relative
	Reactant            moles

	HCl                  1.00000

	                 Relative
	Element             moles
	Cl                   1.00000
	H                    1.00000

-----------------------------Solution composition------------------------------

	Elements           Molality       Moles

	Cl                1.090e-02   1.090e-02

----------------------------Description of solution----------------------------

                                       pH  =   2.003      Charge balance
                                       pe  =  15.805      Adjusted to redox equilibrium
      Specific Conductance (µS/cm,  25°C)  = 4495
                          Density (g/cm³)  =   0.99720
                               Volume (L)  =   1.00321
                        Activity of water  =   1.000
                 Ionic strength (mol/kgw)  =   1.090e-02
                       Mass of water (kg)  =   1.000e+00
                 Total alkalinity (eq/kg)  =  -1.090e-02
                         Temperature (°C)  =  25.00
                           Pressure (atm)  =  0.03
                  Electrical balance (eq)  =   1.632e-11
 Percent error, 100*(Cat-|An|)/(Cat+|An|)  =   0.00
                               Iterations  =  13
                                  Total H  = 1.110233e+02
                                  Total O  = 5.550622e+01

----------------------------Distribution of species----------------------------

                                               Log       Log       Log    mole V
   Species          Molality    Activity  Molality  Activity     Gamma   cm³/mol

   H+              1.090e-02   9.927e-03    -1.962    -2.003    -0.041      0.00
   OH-             1.137e-12   1.019e-12   -11.944   -11.992    -0.048     -4.03
   H2O             5.551e+01   9.996e-01     1.744    -0.000     0.000     18.07
Cl            1.090e-02
   Cl-             1.090e-02   9.780e-03    -1.962    -2.010    -0.047     18.14
H(0)          3.421e-39
   H2              1.711e-39   1.715e-39   -38.767   -38.766     0.001     28.61
O(0)          2.825e-15
   O2              1.413e-15   1.416e-15   -14.850   -14.849     0.001     30.40

------------------------------Saturation indices-------------------------------

  Phase               SI** log IAP   log K(298 K,   0 atm)

  H2(g)           -35.66    -38.77   -3.10  H2
  H2O(g)           -1.50     -0.00    1.50  H2O
  O2(g)           -11.96    -14.85   -2.89  O2

**For a gas, SI = log10(fugacity). Fugacity = pressure * phi / 1 atm.
  For ideal gases, phi = 1.

Reaction step 8.

Using solution 1.	
Using temperature 1.	
Using pressure 1.	
Using reaction 1.	

Reaction 1.	

	  1.992e-02 moles of the following reaction have been added:

	                 Relative
	Reactant            moles

	HCl                  1.00000

	                 Relative
	Element             moles
	Cl                   1.00000
	H                    1.00000

-----------------------------Solution composition------------------------------

	Elements           Molality       Moles

	Cl                1.992e-02   1.992e-02

----------------------------Description of solution----------------------------

                                       pH  =   1.752      Charge balance
                                       pe  =  16.019      Adjusted to redox equilibrium
      Specific Conductance (µS/cm,  25°C)  = 8128
                          Density (g/cm³)  =   0.99736
                               Volume (L)  =   1.00337
                        Activity of water  =   0.999
                 Ionic strength (mol/kgw)  =   1.992e-02
                       Mass of water (kg)  =   1.000e+00
                 Total alkalinity (eq/kg)  =  -1.992e-02
                         Temperature (°C)  =  25.00
                           Pressure (atm)  =  0.03
                  Electrical balance (eq)  =   2.564e-11
 Percent error, 100*(Cat-|An|)/(Cat+|An|)  =   0.00
                               Iterations  =  14
                                  Total H  = 1.110324e+02
                                  Total O  = 5.550622e+01

----------------------------Distribution of species----------------------------

                                               Log       Log       Log    mole V
   Species          Molality    Activity  Molality  Activity     Gamma   cm³/mol

   H+              1.992e-02   1.772e-02    -1.701    -1.752    -0.051      0.00
   OH-             6.583e-13   5.708e-13   -12.182   -12.244    -0.062     -3.99
   H2O             5.551e+01   9.993e-01     1.744    -0.000     0.000     18.07
Cl            1.992e-02
   Cl-             1.992e-02   1.730e-02    -1.701    -1.762    -0.061     18.18
H(0)          4.053e-39
   H2              2.027e-39   2.036e-39   -38.693   -38.691     0.002     28.61
O(0)          1.999e-15
   O2              9.997e-16   1.004e-15   -15.000   -14.998     0.002     30.40

------------------------------Saturation indices-------------------------------

  Phase               SI** log IAP   log K(298 K,   0 atm)

  H2(g)           -35.59    -38.69   -3.10  H2
  H2O(g)           -1.50     -0.00    1.50  H2O
  O2(g)           -12.11    -15.00   -2.89  O2

**For a gas, SI = log10(fugacity). Fugacity = pressure * phi / 1 atm.
  For ideal gases, phi = 1.

Reaction step 9.

Using solution 1.	
Using temperature 1.	
Using pressure 1.	
Using reaction 1.	

Reaction 1.	

	  2.032e-02 moles of the following reaction have been added:

	                 Relative
	Reactant            moles

	HCl                  1.00000

	                 Relative
	Element             moles
	Cl                   1.00000
	H                    1.00000

-----------------------------Solution composition------------------------------

	Elements           Molality       Moles

	Cl                2.032e-02   2.032e-02

----------------------------Description of solution----------------------------

                                       pH  =   1.743      Charge balance
                                       pe  =  15.944      Adjusted to redox equilibrium
      Specific Conductance (µS/cm,  25°C)  = 8288
                          Density (g/cm³)  =   0.99737
                               Volume (L)  =   1.00338
                        Activity of water  =   0.999
                 Ionic strength (mol/kgw)  =   2.032e-02
                       Mass of water (kg)  =   1.000e+00
                 Total alkalinity (eq/kg)  =  -2.032e-02
                         Temperature (°C)  =  25.00
                           Pressure (atm)  =  0.03
                  Electrical balance (eq)  =  -2.111e-17
 Percent error, 100*(Cat-|An|)/(Cat+|An|)  =  -0.00
                               Iterations  =  14
                                  Total H  = 1.110328e+02
                                  Total O  = 5.550622e+01

----------------------------Distribution of species----------------------------

                                               Log       Log       Log    mole V
   Species          Molality    Activity  Molality  Activity     Gamma   cm³/mol

   H+              2.032e-02   1.806e-02    -1.692    -1.743    -0.051      0.00
   OH-             6.466e-13   5.600e-13   -12.189   -12.252    -0.062     -3.99
   H2O             5.551e+01   9.993e-01     1.744    -0.000     0.000     18.07
Cl            2.032e-02
   Cl-             2.032e-02   1.762e-02    -1.692    -1.754    -0.062     18.18
H(0)          5.952e-39
   H2              2.976e-39   2.990e-39   -38.526   -38.524     0.002     28.61
O(0)          9.270e-16
   O2              4.635e-16   4.657e-16   -15.334   -15.332     0.002     30.40

------------------------------Saturation indices-------------------------------

  Phase               SI** log IAP   log K(298 K,   0 atm)

  H2(g)           -35.42    -38.52   -3.10  H2
  H2O(g)           -1.50     -0.00    1.50  H2O
  O2(g)           -12.44    -15.33   -2.89  O2

**For a gas, SI = log10(fugacity). Fugacity = pressure * phi / 1 atm.
  For ideal gases, phi = 1.

Reaction step 10.

Using solution 1.	
Using temperature 1.	
Using pressure 1.	
Using reaction 1.	

Reaction 1.	

	  2.072e-02 moles of the following reaction have been added:

	                 Relative
	Reactant            moles

	HCl                  1.00000

	                 Relative
	Element             moles
	Cl                   1.00000
	H                    1.00000

-----------------------------Solution composition------------------------------

	Elements           Molality       Moles

	Cl                2.072e-02   2.072e-02

----------------------------Description of solution----------------------------

                                       pH  =   1.735      Charge balance
                                       pe  =  16.047      Adjusted to redox equilibrium
      Specific Conductance (µS/cm,  25°C)  = 8449
                          Density (g/cm³)  =   0.99738
                               Volume (L)  =   1.00339
                        Activity of water  =   0.999
                 Ionic strength (mol/kgw)  =   2.072e-02
                       Mass of water (kg)  =   1.000e+00
                 Total alkalinity (eq/kg)  =  -2.072e-02
                         Temperature (°C)  =  25.00
                           Pressure (atm)  =  0.03
                  Electrical balance (eq)  =   1.267e-10
 Percent error, 100*(Cat-|An|)/(Cat+|An|)  =   0.00
                               Iterations  =  14
                                  Total H  = 1.110332e+02
                                  Total O  = 5.550622e+01

----------------------------Distribution of species----------------------------

                                               Log       Log       Log    mole V
   Species          Molality    Activity  Molality  Activity     Gamma   cm³/mol

   H+              2.072e-02   1.841e-02    -1.684    -1.735    -0.052      0.00
   OH-             6.353e-13   5.495e-13   -12.197   -12.260    -0.063     -3.98
   H2O             5.551e+01   9.993e-01     1.744    -0.000     0.000     18.07
Cl            2.072e-02
   Cl-             2.072e-02   1.795e-02    -1.684    -1.746    -0.062     18.18
H(0)          3.845e-39
   H2              1.923e-39   1.932e-39   -38.716   -38.714     0.002     28.61
O(0)          2.221e-15
   O2              1.110e-15   1.116e-15   -14.955   -14.953     0.002     30.40

------------------------------Saturation indices-------------------------------

  Phase               SI** log IAP   log K(298 K,   0 atm)

  H2(g)           -35.61    -38.71   -3.10  H2
  H2O(g)           -1.50     -0.00    1.50  H2O
  O2(g)           -12.06    -14.95   -2.89  O2

**For a gas, SI = log10(fugacity). Fugacity = pressure * phi / 1 atm.
  For ideal gases, phi = 1.

Reaction step 11.

Using solution 1.	
Using temperature 1.	
Using pressure 1.	
Using reaction 1.	

Reaction 1.	

	  2.918e-02 moles of the following reaction have been added:

	                 Relative
	Reactant            moles

	HCl                  1.00000

	                 Relative
	Element             moles
	Cl                   1.00000
	H                    1.00000

-----------------------------Solution composition------------------------------

	Elements           Molality       Moles

	Cl                2.918e-02   2.918e-02

----------------------------Description of solution----------------------------

                                       pH  =   1.593      Charge balance
                                       pe  =  16.206      Adjusted to redox equilibrium
      Specific Conductance (µS/cm,  25°C)  = 11808
                          Density (g/cm³)  =   0.99753
                               Volume (L)  =   1.00354
                        Activity of water  =   0.999
                 Ionic strength (mol/kgw)  =   2.918e-02
                       Mass of water (kg)  =   1.000e+00
                 Total alkalinity (eq/kg)  =  -2.918e-02
                         Temperature (°C)  =  25.00
                           Pressure (atm)  =  0.03
                  Electrical balance (eq)  =   1.414e-11
 Percent error, 100*(Cat-|An|)/(Cat+|An|)  =   0.00
                               Iterations  =  15
                                  Total H  = 1.110416e+02
                                  Total O  = 5.550622e+01

----------------------------Distribution of species----------------------------

                                               Log       Log       Log    mole V
   Species          Molality    Activity  Molality  Activity     Gamma   cm³/mol

   H+              2.918e-02   2.553e-02    -1.535    -1.593    -0.058      0.00
   OH-             4.683e-13   3.960e-13   -12.329   -12.402    -0.073     -3.95
   H2O             5.551e+01   9.990e-01     1.744    -0.000     0.000     18.07
Cl            2.918e-02
   Cl-             2.918e-02   2.472e-02    -1.535    -1.607    -0.072     18.20
H(0)          3.545e-39
   H2              1.772e-39   1.784e-39   -38.751   -38.749     0.003     28.61
O(0)          2.596e-15
   O2              1.298e-15   1.307e-15   -14.887   -14.884     0.003     30.40

------------------------------Saturation indices-------------------------------

  Phase               SI** log IAP   log K(298 K,   0 atm)

  H2(g)           -35.65    -38.75   -3.10  H2
  H2O(g)           -1.50     -0.00    1.50  H2O
  O2(g)           -11.99    -14.88   -2.89  O2

**For a gas, SI = log10(fugacity). Fugacity = pressure * phi / 1 atm.
  For ideal gases, phi = 1.

Reaction step 12.

Using solution 1.	
Using temperature 1.	
Using pressure 1.	
Using reaction 1.	

Reaction 1.	

	  3.001e-02 moles of the following reaction have been added:

	                 Relative
	Reactant            moles

	HCl                  1.00000

	                 Relative
	Element             moles
	Cl                   1.00000
	H                    1.00000

-----------------------------Solution composition------------------------------

	Elements           Molality       Moles

	Cl                3.001e-02   3.001e-02

----------------------------Description of solution----------------------------

                                       pH  =   1.581      Charge balance
                                       pe  =   3.939      Adjusted to redox equilibrium
      Specific Conductance (µS/cm,  25°C)  = 12138
                          Density (g/cm³)  =   0.99755
                               Volume (L)  =   1.00356
                        Activity of water  =   0.999
                 Ionic strength (mol/kgw)  =   3.001e-02
                       Mass of water (kg)  =   1.000e+00
                 Total alkalinity (eq/kg)  =  -3.001e-02
                         Temperature (°C)  =  25.00
                           Pressure (atm)  =  0.03
                  Electrical balance (eq)  =   1.045e-14
 Percent error, 100*(Cat-|An|)/(Cat+|An|)  =   0.00
                               Iterations  =  12
                                  Total H  = 1.110424e+02
                                  Total O  = 5.550622e+01

----------------------------Distribution of species----------------------------

                                               Log       Log       Log    mole V
   Species          Molality    Activity  Molality  Activity     Gamma   cm³/mol

   H+              3.001e-02   2.623e-02    -1.523    -1.581    -0.058      0.00
   OH-             4.567e-13   3.855e-13   -12.340   -12.414    -0.074     -3.95
   H2O             5.551e+01   9.990e-01     1.744    -0.000     0.000     18.07
Cl            3.001e-02
   Cl-             3.001e-02   2.538e-02    -1.523    -1.595    -0.073     18.21
H(0)          1.281e-14
   H2              6.406e-15   6.450e-15   -14.193   -14.190     0.003     28.61
O(0)          0.000e+00
   O2              0.000e+00   0.000e+00   -64.003   -64.000     0.003     30.40

------------------------------Saturation indices-------------------------------

  Phase               SI** log IAP   log K(298 K,   0 atm)

  H2(g)           -11.09    -14.19   -3.10  H2
  H2O(g)           -1.50     -0.00    1.50  H2O
  O2(g)           -61.11    -64.00   -2.89  O2

**For a gas, SI = log10(fugacity). Fugacity = pressure * phi / 1 atm.
  For ideal gases, phi = 1.

Reaction step 13.

Using solution 1.	
Using temperature 1.	
Using pressure 1.	
Using reaction 1.	

Reaction 1.	

	  3.964e-02 moles of the following reaction have been added:

	                 Relative
	Reactant            moles

	HCl                  1.00000

	                 Relative
	Element             moles
	Cl                   1.00000
	H                    1.00000

-----------------------------Solution composition------------------------------

	Elements           Molality       Moles

	Cl                3.964e-02   3.964e-02

----------------------------Description of solution----------------------------

                                       pH  =   1.466      Charge balance
                                       pe  =   4.135      Adjusted to redox equilibrium
      Specific Conductance (µS/cm,  25°C)  = 15922
                          Density (g/cm³)  =   0.99772
                               Volume (L)  =   1.00373
                        Activity of water  =   0.999
                 Ionic strength (mol/kgw)  =   3.964e-02
                       Mass of water (kg)  =   1.000e+00
                 Total alkalinity (eq/kg)  =  -3.964e-02
                         Temperature (°C)  =  25.00
                           Pressure (atm)  =  0.03
                  Electrical balance (eq)  =   4.538e-12
 Percent error, 100*(Cat-|An|)/(Cat+|An|)  =   0.00
                               Iterations  =  13
                                  Total H  = 1.110521e+02
                                  Total O  = 5.550622e+01

----------------------------Distribution of species----------------------------

                                               Log       Log       Log    mole V
   Species          Molality    Activity  Molality  Activity     Gamma   cm³/mol

   H+              3.964e-02   3.421e-02    -1.402    -1.466    -0.064      0.00
   OH-             3.573e-13   2.954e-13   -12.447   -12.530    -0.083     -3.91
   H2O             5.551e+01   9.987e-01     1.744    -0.001     0.000     18.07
Cl            3.964e-02
   Cl-             3.964e-02   3.287e-02    -1.402    -1.483    -0.081     18.23
H(0)          8.819e-15
   H2              4.409e-15   4.450e-15   -14.356   -14.352     0.004     28.61
O(0)          0.000e+00
   O2              0.000e+00   0.000e+00   -63.682   -63.678     0.004     30.40

------------------------------Saturation indices-------------------------------

  Phase               SI** log IAP   log K(298 K,   0 atm)

  H2(g)           -11.25    -14.35   -3.10  H2
  H2O(g)           -1.50     -0.00    1.50  H2O
  O2(g)           -60.79    -63.68   -2.89  O2

**For a gas, SI = log10(fugacity). Fugacity = pressure * phi / 1 atm.
  For ideal gases, phi = 1.

Reaction step 14.

Using solution 1.	
Using temperature 1.	
Using pressure 1.	
Using reaction 1.	

Reaction 1.	

	  4.000e-02 moles of the following reaction have been added:

	                 Relative
	Reactant            moles

	HCl                  1.00000

	                 Relative
	Element             moles
	Cl                   1.00000
	H                    1.00000

-----------------------------Solution composition------------------------------

	Elements           Molality       Moles

	Cl                4.000e-02   4.000e-02

----------------------------Description of solution----------------------------

                                       pH  =   1.462      Charge balance
                                       pe  =   4.055      Adjusted to redox equilibrium
      Specific Conductance (µS/cm,  25°C)  = 16063
                          Density (g/cm³)  =   0.99773
                               Volume (L)  =   1.00374
                        Activity of water  =   0.999
                 Ionic strength (mol/kgw)  =   4.000e-02
                       Mass of water (kg)  =   1.000e+00
                 Total alkalinity (eq/kg)  =  -4.000e-02
                         Temperature (°C)  =  25.00
                           Pressure (atm)  =  0.03
                  Electrical balance (eq)  =   2.363e-12
 Percent error, 100*(Cat-|An|)/(Cat+|An|)  =   0.00
                               Iterations  =  13
                                  Total H  = 1.110524e+02
                                  Total O  = 5.550622e+01

----------------------------Distribution of species----------------------------

                                               Log       Log       Log    mole V
   Species          Molality    Activity  Molality  Activity     Gamma   cm³/mol

   H+              4.000e-02   3.451e-02    -1.398    -1.462    -0.064      0.00
   OH-             3.545e-13   2.929e-13   -12.450   -12.533    -0.083     -3.91
   H2O             5.551e+01   9.986e-01     1.744    -0.001     0.000     18.07
Cl            4.000e-02
   Cl-             4.000e-02   3.314e-02    -1.398    -1.480    -0.082     18.23
H(0)          1.294e-14
   H2              6.471e-15   6.531e-15   -14.189   -14.185     0.004     28.61
O(0)          0.000e+00
   O2              0.000e+00   0.000e+00   -64.015   -64.011     0.004     30.40

------------------------------Saturation indices-------------------------------

  Phase               SI** log IAP   log K(298 K,   0 atm)

  H2(g)           -11.08    -14.19   -3.10  H2
  H2O(g)           -1.50     -0.00    1.50  H2O
  O2(g)           -61.12    -64.01   -2.89  O2

**For a gas, SI = log10(fugacity). Fugacity = pressure * phi / 1 atm.
  For ideal gases, phi = 1.

Reaction step 15.

Using solution 1.	
Using temperature 1.	
Using pressure 1.	
Using reaction 1.	

Reaction 1.	

	  5.050e-02 moles of the following reaction have been added:

	                 Relative
	Reactant            moles

	HCl                  1.00000

	                 Relative
	Element             moles
	Cl                   1.00000
	H                    1.00000

-----------------------------Solution composition------------------------------

	Elements           Molality       Moles

	Cl                5.050e-02   5.050e-02

----------------------------Description of solution----------------------------

                                       pH  =   1.366      Charge balance
                                       pe  =  16.164      Adjusted to redox equilibrium
      Specific Conductance (µS/cm,  25°C)  = 20147
                          Density (g/cm³)  =   0.99792
                               Volume (L)  =   1.00393
                        Activity of water  =   0.998
                 Ionic strength (mol/kgw)  =   5.050e-02
                       Mass of water (kg)  =   1.000e+00
                 Total alkalinity (eq/kg)  =  -5.050e-02
                         Temperature (°C)  =  25.00
                           Pressure (atm)  =  0.03
                  Electrical balance (eq)  =   4.802e-12
 Percent error, 100*(Cat-|An|)/(Cat+|An|)  =   0.00
                               Iterations  =  15
                                  Total H  = 1.110629e+02
                                  Total O  = 5.550622e+01

----------------------------Distribution of species----------------------------

                                               Log       Log       Log    mole V
   Species          Molality    Activity  Molality  Activity     Gamma   cm³/mol

   H+              5.050e-02   4.309e-02    -1.297    -1.366    -0.069      0.00
   OH-             2.892e-13   2.345e-13   -12.539   -12.630    -0.091     -3.87
   H2O             5.551e+01   9.983e-01     1.744    -0.001     0.000     18.07
Cl            5.050e-02
   Cl-             5.050e-02   4.109e-02    -1.297    -1.386    -0.090     18.25
H(0)          1.222e-38
   H2              6.110e-39   6.181e-39   -38.214   -38.209     0.005     28.61
O(0)          2.149e-16
   O2              1.075e-16   1.087e-16   -15.969   -15.964     0.005     30.40

------------------------------Saturation indices-------------------------------

  Phase               SI** log IAP   log K(298 K,   0 atm)

  H2(g)           -35.11    -38.21   -3.10  H2
  H2O(g)           -1.50     -0.00    1.50  H2O
  O2(g)           -13.07    -15.96   -2.89  O2

**For a gas, SI = log10(fugacity). Fugacity = pressure * phi / 1 atm.
  For ideal gases, phi = 1.

Reaction step 16.

Using solution 1.	
Using temperature 1.	
Using pressure 1.	
Using reaction 1.	

Reaction 1.	

	  5.765e-02 moles of the following reaction have been added:

	                 Relative
	Reactant            moles

	HCl                  1.00000

	                 Relative
	Element             moles
	Cl                   1.00000
	H                    1.00000

-----------------------------Solution composition------------------------------

	Elements           Molality       Moles

	Cl                5.765e-02   5.765e-02

----------------------------Description of solution----------------------------

                                       pH  =   1.311      Charge balance
                                       pe  =  16.477      Adjusted to redox equilibrium
      Specific Conductance (µS/cm,  25°C)  = 22907
                          Density (g/cm³)  =   0.99805
                               Volume (L)  =   1.00406
                        Activity of water  =   0.998
                 Ionic strength (mol/kgw)  =   5.765e-02
                       Mass of water (kg)  =   1.000e+00
                 Total alkalinity (eq/kg)  =  -5.765e-02
                         Temperature (°C)  =  25.00
                           Pressure (atm)  =  0.03
                  Electrical balance (eq)  =   7.160e-13
 Percent error, 100*(Cat-|An|)/(Cat+|An|)  =   0.00
                               Iterations  =  15
                                  Total H  = 1.110701e+02
                                  Total O  = 5.550622e+01

----------------------------Distribution of species----------------------------

                                               Log       Log       Log    mole V
   Species          Molality    Activity  Molality  Activity     Gamma   cm³/mol

   H+              5.765e-02   4.889e-02    -1.239    -1.311    -0.072      0.00
   OH-             2.577e-13   2.066e-13   -12.589   -12.685    -0.096     -3.85
   H2O             5.551e+01   9.980e-01     1.744    -0.001     0.000     18.07
Cl            5.765e-02
   Cl-             5.765e-02   4.641e-02    -1.239    -1.333    -0.094     18.27
H(0)          3.704e-39
   H2              1.852e-39   1.877e-39   -38.732   -38.727     0.006     28.61
O(0)          2.327e-15
   O2              1.163e-15   1.179e-15   -14.934   -14.929     0.006     30.40

------------------------------Saturation indices-------------------------------

  Phase               SI** log IAP   log K(298 K,   0 atm)

  H2(g)           -35.63    -38.73   -3.10  H2
  H2O(g)           -1.50     -0.00    1.50  H2O
  O2(g)           -12.04    -14.93   -2.89  O2

**For a gas, SI = log10(fugacity). Fugacity = pressure * phi / 1 atm.
  For ideal gases, phi = 1.

Reaction step 17.

Using solution 1.	
Using temperature 1.	
Using pressure 1.	
Using reaction 1.	

Reaction 1.	

	  6.184e-02 moles of the following reaction have been added:

	                 Relative
	Reactant            moles

	HCl                  1.00000

	                 Relative
	Element             moles
	Cl                   1.00000
	H                    1.00000

-----------------------------Solution composition------------------------------

	Elements           Molality       Moles

	Cl                6.184e-02   6.184e-02

----------------------------Description of solution----------------------------

                                       pH  =   1.282      Charge balance
                                       pe  =  16.514      Adjusted to redox equilibrium
      Specific Conductance (µS/cm,  25°C)  = 24516
                          Density (g/cm³)  =   0.99812
                               Volume (L)  =   1.00414
                        Activity of water  =   0.998
                 Ionic strength (mol/kgw)  =   6.184e-02
                       Mass of water (kg)  =   1.000e+00
                 Total alkalinity (eq/kg)  =  -6.184e-02
                         Temperature (°C)  =  25.00
                           Pressure (atm)  =  0.03
                  Electrical balance (eq)  =   1.002e-13
 Percent error, 100*(Cat-|An|)/(Cat+|An|)  =   0.00
                               Iterations  =  15
                                  Total H  = 1.110743e+02
                                  Total O  = 5.550622e+01

----------------------------Distribution of species----------------------------

                                               Log       Log       Log    mole V
   Species          Molality    Activity  Molality  Activity     Gamma   cm³/mol

   H+              6.184e-02   5.226e-02    -1.209    -1.282    -0.073      0.00
   OH-             2.426e-13   1.933e-13   -12.615   -12.714    -0.099     -3.84
   H2O             5.551e+01   9.979e-01     1.744    -0.001     0.000     18.07
Cl            6.184e-02
   Cl-             6.184e-02   4.949e-02    -1.209    -1.306    -0.097     18.28
H(0)          3.580e-39
   H2              1.790e-39   1.816e-39   -38.747   -38.741     0.006     28.61
O(0)          2.482e-15
   O2              1.241e-15   1.259e-15   -14.906   -14.900     0.006     30.40

------------------------------Saturation indices-------------------------------

  Phase               SI** log IAP   log K(298 K,   0 atm)

  H2(g)           -35.64    -38.74   -3.10  H2
  H2O(g)           -1.50     -0.00    1.50  H2O
  O2(g)           -12.01    -14.90   -2.89  O2

**For a gas, SI = log10(fugacity). Fugacity = pressure * phi / 1 atm.
  For ideal gases, phi = 1.

Reaction step 18.

Using solution 1.	
Using temperature 1.	
Using pressure 1.	
Using reaction 1.	

Reaction 1.	

	  7.539e-02 moles of the following reaction have been added:

	                 Relative
	Reactant            moles

	HCl                  1.00000

	                 Relative
	Element             moles
	Cl                   1.00000
	H                    1.00000

-----------------------------Solution composition------------------------------

	Elements           Molality       Moles

	Cl                7.539e-02   7.539e-02

----------------------------Description of solution----------------------------

                                       pH  =   1.200      Charge balance
                                       pe  =  16.444      Adjusted to redox equilibrium
      Specific Conductance (µS/cm,  25°C)  = 29688
                          Density (g/cm³)  =   0.99837
                               Volume (L)  =   1.00439
                        Activity of water  =   0.997
                 Ionic strength (mol/kgw)  =   7.539e-02
                       Mass of water (kg)  =   1.000e+00
                 Total alkalinity (eq/kg)  =  -7.539e-02
                         Temperature (°C)  =  25.00
                           Pressure (atm)  =  0.03
                  Electrical balance (eq)  =   5.487e-11
 Percent error, 100*(Cat-|An|)/(Cat+|An|)  =   0.00
                               Iterations  =  15
                                  Total H  = 1.110878e+02
                                  Total O  = 5.550622e+01

----------------------------Distribution of species----------------------------

                                               Log       Log       Log    mole V
   Species          Molality    Activity  Molality  Activity     Gamma   cm³/mol

   H+              7.539e-02   6.310e-02    -1.123    -1.200    -0.077      0.00
   OH-             2.044e-13   1.600e-13   -12.689   -12.796    -0.106     -3.80
   H2O             5.551e+01   9.974e-01     1.744    -0.001     0.000     18.07
Cl            7.539e-02
   Cl-             7.539e-02   5.931e-02    -1.123    -1.227    -0.104     18.30
H(0)          7.174e-39
   H2              3.587e-39   3.650e-39   -38.445   -38.438     0.008     28.61
O(0)          6.120e-16
   O2              3.060e-16   3.114e-16   -15.514   -15.507     0.008     30.40

------------------------------Saturation indices-------------------------------

  Phase               SI** log IAP   log K(298 K,   0 atm)

  H2(g)           -35.34    -38.44   -3.10  H2
  H2O(g)           -1.50     -0.00    1.50  H2O
  O2(g)           -12.61    -15.51   -2.89  O2

**For a gas, SI = log10(fugacity). Fugacity = pressure * phi / 1 atm.
  For ideal gases, phi = 1.

Reaction step 19.

Using solution 1.	
Using temperature 1.	
Using pressure 1.	
Using reaction 1.	

Reaction 1.	

	  7.969e-02 moles of the following reaction have been added:

	                 Relative
	Reactant            moles

	HCl                  1.00000

	                 Relative
	Element             moles
	Cl                   1.00000
	H                    1.00000

-----------------------------Solution composition------------------------------

	Elements           Molality       Moles

	Cl                7.969e-02   7.969e-02

----------------------------Description of solution----------------------------

                                       pH  =   1.177      Charge balance
                                       pe  =  16.388      Adjusted to redox equilibrium
      Specific Conductance (µS/cm,  25°C)  = 31319
                          Density (g/cm³)  =   0.99844
                               Volume (L)  =   1.00447
                        Activity of water  =   0.997
                 Ionic strength (mol/kgw)  =   7.969e-02
                       Mass of water (kg)  =   1.000e+00
                 Total alkalinity (eq/kg)  =  -7.969e-02
                         Temperature (°C)  =  25.00
                           Pressure (atm)  =  0.03
                  Electrical balance (eq)  =   5.328e-10
 Percent error, 100*(Cat-|An|)/(Cat+|An|)  =   0.00
                               Iterations  =  15
                                  Total H  = 1.110921e+02
                                  Total O  = 5.550622e+01

----------------------------Distribution of species----------------------------

                                               Log       Log       Log    mole V
   Species          Molality    Activity  Molality  Activity     Gamma   cm³/mol

   H+              7.969e-02   6.652e-02    -1.099    -1.177    -0.078      0.00
   OH-             1.949e-13   1.518e-13   -12.710   -12.819    -0.109     -3.79
   H2O             5.551e+01   9.973e-01     1.744    -0.001     0.000     18.07
Cl            7.969e-02
   Cl-             7.969e-02   6.238e-02    -1.099    -1.205    -0.106     18.31
H(0)          1.031e-38
   H2              5.154e-39   5.249e-39   -38.288   -38.280     0.008     28.61
O(0)          2.955e-16
   O2              1.477e-16   1.505e-16   -15.831   -15.823     0.008     30.40

------------------------------Saturation indices-------------------------------

  Phase               SI** log IAP   log K(298 K,   0 atm)

  H2(g)           -35.18    -38.28   -3.10  H2
  H2O(g)           -1.50     -0.00    1.50  H2O
  O2(g)           -12.93    -15.82   -2.89  O2

**For a gas, SI = log10(fugacity). Fugacity = pressure * phi / 1 atm.
  For ideal gases, phi = 1.

Reaction step 20.

Using solution 1.	
Using temperature 1.	
Using pressure 1.	
Using reaction 1.	

Reaction 1.	

	  7.993e-02 moles of the following reaction have been added:

	                 Relative
	Reactant            moles

	HCl                  1.00000

	                 Relative
	Element             moles
	Cl                   1.00000
	H                    1.00000

-----------------------------Solution composition------------------------------

	Elements           Molality       Moles

	Cl                7.993e-02   7.993e-02

----------------------------Description of solution----------------------------

                                       pH  =   1.176      Charge balance
                                       pe  =   4.570      Adjusted to redox equilibrium
      Specific Conductance (µS/cm,  25°C)  = 31410
                          Density (g/cm³)  =   0.99845
                               Volume (L)  =   1.00447
                        Activity of water  =   0.997
                 Ionic strength (mol/kgw)  =   7.993e-02
                       Mass of water (kg)  =   1.000e+00
                 Total alkalinity (eq/kg)  =  -7.993e-02
                         Temperature (°C)  =  25.00
                           Pressure (atm)  =  0.03
                  Electrical balance (eq)  =   5.865e-12
 Percent error, 100*(Cat-|An|)/(Cat+|An|)  =   0.00
                               Iterations  =  11
                                  Total H  = 1.110924e+02
                                  Total O  = 5.550622e+01

----------------------------Distribution of species----------------------------

                                               Log       Log       Log    mole V
   Species          Molality    Activity  Molality  Activity     Gamma   cm³/mol

   H+              7.993e-02   6.671e-02    -1.097    -1.176    -0.079      0.00
   OH-             1.944e-13   1.513e-13   -12.711   -12.820    -0.109     -3.79
   H2O             5.551e+01   9.973e-01     1.744    -0.001     0.000     18.07
Cl            7.993e-02
   Cl-             7.993e-02   6.255e-02    -1.097    -1.204    -0.106     18.31
H(0)          4.487e-15
   H2              2.243e-15   2.285e-15   -14.649   -14.641     0.008     28.61
O(0)          0.000e+00
   O2              0.000e+00   0.000e+00   -63.108   -63.100     0.008     30.40

------------------------------Saturation indices-------------------------------

  Phase               SI** log IAP   log K(298 K,   0 atm)

  H2(g)           -11.54    -14.64   -3.10  H2
  H2O(g)           -1.50     -0.00    1.50  H2O
  O2(g)           -60.21    -63.10   -2.89  O2

**For a gas, SI = log10(fugacity). Fugacity = pressure * phi / 1 atm.
  For ideal gases, phi = 1.

Reaction step 21.

Using solution 1.	
Using temperature 1.	
Using pressure 1.	
Using reaction 1.	

Reaction 1.	

	  9.071e-02 moles of the following reaction have been added:

	                 Relative
	Reactant            moles

	HCl                  1.00000

	                 Relative
	Element             moles
	Cl                   1.00000
	H                    1.00000

-----------------------------Solution composition------------------------------

	Elements           Molality       Moles

	Cl                9.071e-02   9.071e-02

----------------------------Description of solution----------------------------

                                       pH  =   1.124      Charge balance
                                       pe  =   4.856      Adjusted to redox equilibrium
      Specific Conductance (µS/cm,  25°C)  = 35478
                          Density (g/cm³)  =   0.99864
                               Volume (L)  =   1.00467
                        Activity of water  =   0.997
                 Ionic strength (mol/kgw)  =   9.071e-02
                       Mass of water (kg)  =   1.000e+00
                 Total alkalinity (eq/kg)  =  -9.071e-02
                         Temperature (°C)  =  25.00
                           Pressure (atm)  =  0.03
                  Electrical balance (eq)  =   6.932e-15
 Percent error, 100*(Cat-|An|)/(Cat+|An|)  =   0.00
                               Iterations  =  10
                                  Total H  = 1.111031e+02
                                  Total O  = 5.550622e+01

----------------------------Distribution of species----------------------------

                                               Log       Log       Log    mole V
   Species          Molality    Activity  Molality  Activity     Gamma   cm³/mol

   H+              9.071e-02   7.523e-02    -1.042    -1.124    -0.081      0.00
   OH-             1.744e-13   1.341e-13   -12.758   -12.873    -0.114     -3.76
   H2O             5.551e+01   9.969e-01     1.744    -0.001     0.000     18.07
Cl            9.071e-02
   Cl-             9.071e-02   7.018e-02    -1.042    -1.154    -0.111     18.32
H(0)          1.526e-15
   H2              7.629e-16   7.790e-16   -15.118   -15.108     0.009     28.61
O(0)          0.000e+00
   O2              0.000e+00   0.000e+00   -62.175   -62.166     0.009     30.40

------------------------------Saturation indices-------------------------------

  Phase               SI** log IAP   log K(298 K,   0 atm)

  H2(g)           -12.01    -15.11   -3.10  H2
  H2O(g)           -1.50     -0.00    1.50  H2O
  O2(g)           -59.27    -62.17   -2.89  O2

**For a gas, SI = log10(fugacity). Fugacity = pressure * phi / 1 atm.
  For ideal gases, phi = 1.

Reaction step 22.

Using solution 1.	
Using temperature 1.	
Using pressure 1.	
Using reaction 1.	

Reaction 1.	

	  9.898e-02 moles of the following reaction have been added:

	                 Relative
	Reactant            moles

	HCl                  1.00000

	                 Relative
	Element             moles
	Cl                   1.00000
	H                    1.00000

-----------------------------Solution composition------------------------------

	Elements           Molality       Moles

	Cl                9.898e-02   9.898e-02

----------------------------Description of solution----------------------------

                                       pH  =   1.088      Charge balance
                                       pe  =  16.638      Adjusted to redox equilibrium
      Specific Conductance (µS/cm,  25°C)  = 38579
                          Density (g/cm³)  =   0.99879
                               Volume (L)  =   1.00482
                        Activity of water  =   0.997
                 Ionic strength (mol/kgw)  =   9.898e-02
                       Mass of water (kg)  =   1.000e+00
                 Total alkalinity (eq/kg)  =  -9.898e-02
                         Temperature (°C)  =  25.00
                           Pressure (atm)  =  0.03
                  Electrical balance (eq)  =   4.664e-13
 Percent error, 100*(Cat-|An|)/(Cat+|An|)  =   0.00
                               Iterations  =  14
                                  Total H  = 1.111114e+02
                                  Total O  = 5.550622e+01

----------------------------Distribution of species----------------------------

                                               Log       Log       Log    mole V
   Species          Molality    Activity  Molality  Activity     Gamma   cm³/mol

   H+              9.898e-02   8.174e-02    -1.004    -1.088    -0.083      0.00
   OH-             1.619e-13   1.234e-13   -12.791   -12.909    -0.118     -3.74
   H2O             5.551e+01   9.966e-01     1.744    -0.001     0.000     18.07
Cl            9.898e-02
   Cl-             9.898e-02   7.595e-02    -1.004    -1.119    -0.115     18.34
H(0)          4.900e-39
   H2              2.450e-39   2.507e-39   -38.611   -38.601     0.010     28.61
O(0)          1.288e-15
   O2              6.441e-16   6.590e-16   -15.191   -15.181     0.010     30.40

------------------------------Saturation indices-------------------------------

  Phase               SI** log IAP   log K(298 K,   0 atm)

  H2(g)           -35.50    -38.60   -3.10  H2
  H2O(g)           -1.50     -0.00    1.50  H2O
  O2(g)           -12.29    -15.18   -2.89  O2

**For a gas, SI = log10(fugacity). Fugacity = pressure * phi / 1 atm.
  For ideal gases, phi = 1.

Reaction step 23.

Using solution 1.	
Using temperature 1.	
Using pressure 1.	
Using reaction 1.	

Reaction 1.	

	  1.001e-01 moles of the following reaction have been added:

	                 Relative
	Reactant            moles

	HCl                  1.00000

	                 Relative
	Element             moles
	Cl                   1.00000
	H                    1.00000

-----------------------------Solution composition------------------------------

	Elements           Molality       Moles

	Cl                1.001e-01   1.001e-01

----------------------------Description of solution----------------------------

                                       pH  =   1.083      Charge balance
                                       pe  =  16.632      Adjusted to redox equilibrium
      Specific Conductance (µS/cm,  25°C)  = 38998
                          Density (g/cm³)  =   0.99881
                               Volume (L)  =   1.00485
                        Activity of water  =   0.997
                 Ionic strength (mol/kgw)  =   1.001e-01
                       Mass of water (kg)  =   1.000e+00
                 Total alkalinity (eq/kg)  =  -1.001e-01
                         Temperature (°C)  =  25.00
                           Pressure (atm)  =  0.03
                  Electrical balance (eq)  =   7.001e-10
 Percent error, 100*(Cat-|An|)/(Cat+|An|)  =   0.00
                               Iterations  =  14
                                  Total H  = 1.111125e+02
                                  Total O  = 5.550622e+01

----------------------------Distribution of species----------------------------

                                               Log       Log       Log    mole V
   Species          Molality    Activity  Molality  Activity     Gamma   cm³/mol

   H+              1.001e-01   8.261e-02    -1.000    -1.083    -0.083      0.00
   OH-             1.603e-13   1.221e-13   -12.795   -12.913    -0.118     -3.73
   H2O             5.551e+01   9.966e-01     1.744    -0.001     0.000     18.07
Cl            1.001e-01
   Cl-             1.001e-01   7.673e-02    -1.000    -1.115    -0.115     18.34
H(0)          5.152e-39
   H2              2.576e-39   2.636e-39   -38.589   -38.579     0.010     28.61
O(0)          1.165e-15
   O2              5.823e-16   5.959e-16   -15.235   -15.225     0.010     30.40

------------------------------Saturation indices-------------------------------

  Phase               SI** log IAP   log K(298 K,   0 atm)

  H2(g)           -35.48    -38.58   -3.10  H2
  H2O(g)           -1.50     -0.00    1.50  H2O
  O2(g)           -12.33    -15.22   -2.89  O2

**For a gas, SI = log10(fugacity). Fugacity = pressure * phi / 1 atm.
  For ideal gases, phi = 1.

Reaction step 24.

Using solution 1.	
Using temperature 1.	
Using pressure 1.	
Using reaction 1.	

Reaction 1.	

	  1.159e-01 moles of the following reaction have been added:

	                 Relative
	Reactant            moles

	HCl                  1.00000

	                 Relative
	Element             moles
	Cl                   1.00000
	H                    1.00000

-----------------------------Solution composition------------------------------

	Elements           Molality       Moles

	Cl                1.159e-01   1.159e-01

----------------------------Description of solution----------------------------

                                       pH  =   1.022      Charge balance
                                       pe  =  16.741      Adjusted to redox equilibrium
      Specific Conductance (µS/cm,  25°C)  = 44878
                          Density (g/cm³)  =   0.99909
                               Volume (L)  =   1.00514
                        Activity of water  =   0.996
                 Ionic strength (mol/kgw)  =   1.159e-01
                       Mass of water (kg)  =   1.000e+00
                 Total alkalinity (eq/kg)  =  -1.159e-01
                         Temperature (°C)  =  25.00
                           Pressure (atm)  =  0.03
                  Electrical balance (eq)  =  -1.161e-17
 Percent error, 100*(Cat-|An|)/(Cat+|An|)  =  -0.00
                               Iterations  =  14
                                  Total H  = 1.111283e+02
                                  Total O  = 5.550622e+01

----------------------------Distribution of species----------------------------

                                               Log       Log       Log    mole V
   Species          Molality    Activity  Molality  Activity     Gamma   cm³/mol

   H+              1.159e-01   9.496e-02    -0.936    -1.022    -0.087      0.00
   OH-             1.415e-13   1.062e-13   -12.849   -12.974    -0.125     -3.69
   H2O             5.551e+01   9.961e-01     1.744    -0.002     0.000     18.07
Cl            1.159e-01
   Cl-             1.159e-01   8.761e-02    -0.936    -1.057    -0.122     18.36
H(0)          4.097e-39
   H2              2.048e-39   2.104e-39   -38.689   -38.677     0.012     28.61
O(0)          1.820e-15
   O2              9.099e-16   9.345e-16   -15.041   -15.029     0.012     30.40

------------------------------Saturation indices-------------------------------

  Phase               SI** log IAP   log K(298 K,   0 atm)

  H2(g)           -35.58    -38.68   -3.10  H2
  H2O(g)           -1.50     -0.00    1.50  H2O
  O2(g)           -12.14    -15.03   -2.89  O2

**For a gas, SI = log10(fugacity). Fugacity = pressure * phi / 1 atm.
  For ideal gases, phi = 1.

Reaction step 25.

Using solution 1.	
Using temperature 1.	
Using pressure 1.	
Using reaction 1.	

Reaction 1.	

	  1.240e-01 moles of the following reaction have been added:

	                 Relative
	Reactant            moles

	HCl                  1.00000

	                 Relative
	Element             moles
	Cl                   1.00000
	H                    1.00000

-----------------------------Solution composition------------------------------

	Elements           Molality       Moles

	Cl                1.240e-01   1.240e-01

----------------------------Description of solution----------------------------

                                       pH  =   0.995      Charge balance
                                       pe  =  16.803      Adjusted to redox equilibrium
      Specific Conductance (µS/cm,  25°C)  = 47872
                          Density (g/cm³)  =   0.99924
                               Volume (L)  =   1.00529
                        Activity of water  =   0.996
                 Ionic strength (mol/kgw)  =   1.240e-01
                       Mass of water (kg)  =   1.000e+00
                 Total alkalinity (eq/kg)  =  -1.240e-01
                         Temperature (°C)  =  25.00
                           Pressure (atm)  =  0.03
                  Electrical balance (eq)  =   9.913e-10
 Percent error, 100*(Cat-|An|)/(Cat+|An|)  =   0.00
                               Iterations  =  13
                                  Total H  = 1.111364e+02
                                  Total O  = 5.550622e+01

----------------------------Distribution of species----------------------------

                                               Log       Log       Log    mole V
   Species          Molality    Activity  Molality  Activity     Gamma   cm³/mol

   H+              1.240e-01   1.013e-01    -0.907    -0.995    -0.088      0.00
   OH-             1.336e-13   9.954e-14   -12.874   -13.002    -0.128     -3.67
   H2O             5.551e+01   9.958e-01     1.744    -0.002     0.000     18.07
Cl            1.240e-01
   Cl-             1.240e-01   9.312e-02    -0.907    -1.031    -0.124     18.37
H(0)          3.501e-39
   H2              1.751e-39   1.801e-39   -38.757   -38.744     0.012     28.61
O(0)          2.476e-15
   O2              1.238e-15   1.274e-15   -14.907   -14.895     0.012     30.40

------------------------------Saturation indices-------------------------------

  Phase               SI** log IAP   log K(298 K,   0 atm)

  H2(g)           -35.64    -38.74   -3.10  H2
  H2O(g)           -1.50     -0.00    1.50  H2O
  O2(g)           -12.00    -14.89   -2.89  O2

**For a gas, SI = log10(fugacity). Fugacity = pressure * phi / 1 atm.
  For ideal gases, phi = 1.

Reaction step 26.

Using solution 1.	
Using temperature 1.	
Using pressure 1.	
Using reaction 1.	

Reaction 1.	

	  1.257e-01 moles of the following reaction have been added:

	                 Relative
	Reactant            moles

	HCl                  1.00000

	                 Relative
	Element             moles
	Cl                   1.00000
	H                    1.00000

-----------------------------Solution composition------------------------------

	Elements           Molality       Moles

	Cl                1.256e-01   1.257e-01

----------------------------Description of solution----------------------------

                                       pH  =   0.989      Charge balance
                                       pe  =  16.843      Adjusted to redox equilibrium
      Specific Conductance (µS/cm,  25°C)  = 48480
                          Density (g/cm³)  =   0.99927
                               Volume (L)  =   1.00532
                        Activity of water  =   0.996
                 Ionic strength (mol/kgw)  =   1.256e-01
                       Mass of water (kg)  =   1.000e+00
                 Total alkalinity (eq/kg)  =  -1.256e-01
                         Temperature (°C)  =  25.00
                           Pressure (atm)  =  0.03
                  Electrical balance (eq)  =  -2.788e-17
 Percent error, 100*(Cat-|An|)/(Cat+|An|)  =  -0.00
                               Iterations  =  14
                                  Total H  = 1.111381e+02
                                  Total O  = 5.550622e+01

----------------------------Distribution of species----------------------------

                                               Log       Log       Log    mole V
   Species          Molality    Activity  Molality  Activity     Gamma   cm³/mol

   H+              1.256e-01   1.025e-01    -0.901    -0.989    -0.088      0.00
   OH-             1.321e-13   9.829e-14   -12.879   -13.007    -0.128     -3.67
   H2O             5.551e+01   9.957e-01     1.744    -0.002     0.000     18.07
Cl            1.256e-01
   Cl-             1.256e-01   9.424e-02    -0.901    -1.026    -0.125     18.37
H(0)          2.983e-39
   H2              1.491e-39   1.535e-39   -38.826   -38.814     0.013     28.61
O(0)          3.407e-15
   O2              1.704e-15   1.754e-15   -14.769   -14.756     0.013     30.40

------------------------------Saturation indices-------------------------------

  Phase               SI** log IAP   log K(298 K,   0 atm)

  H2(g)           -35.71    -38.81   -3.10  H2
  H2O(g)           -1.50     -0.00    1.50  H2O
  O2(g)           -11.86    -14.76   -2.89  O2

**For a gas, SI = log10(fugacity). Fugacity = pressure * phi / 1 atm.
  For ideal gases, phi = 1.

Reaction step 27.

Using solution 1.	
Using temperature 1.	
Using pressure 1.	
Using reaction 1.	

Reaction 1.	

	  1.382e-01 moles of the following reaction have been added:

	                 Relative
	Reactant            moles

	HCl                  1.00000

	                 Relative
	Element             moles
	Cl                   1.00000
	H                    1.00000

-----------------------------Solution composition------------------------------

	Elements           Molality       Moles

	Cl                1.382e-01   1.382e-01

----------------------------Description of solution----------------------------

                                       pH  =   0.950      Charge balance
                                       pe  =  16.765      Adjusted to redox equilibrium
      Specific Conductance (µS/cm,  25°C)  = 53090
                          Density (g/cm³)  =   0.99949
                               Volume (L)  =   1.00555
                        Activity of water  =   0.995
                 Ionic strength (mol/kgw)  =   1.382e-01
                       Mass of water (kg)  =   1.000e+00
                 Total alkalinity (eq/kg)  =  -1.382e-01
                         Temperature (°C)  =  25.00
                           Pressure (atm)  =  0.03
                  Electrical balance (eq)  =   9.355e-10
 Percent error, 100*(Cat-|An|)/(Cat+|An|)  =   0.00
                               Iterations  =  14
                                  Total H  = 1.111506e+02
                                  Total O  = 5.550622e+01

[...]
O(0)          3.091e-07
   O2              1.545e-07   1.170e-06    -6.811    -5.932     0.879     30.40

------------------------------Saturation indices-------------------------------

  Phase               SI** log IAP   log K(298 K,   1 atm)

  H2(g)           -40.28    -43.38   -3.10  H2
  H2O(g)           -1.66     -0.15    1.50  H2O
  N2(g)            -3.15     -6.33   -3.18  N2
  O2(g)            -3.04     -5.93   -2.89  O2

**For a gas, SI = log10(fugacity). Fugacity = pressure * phi / 1 atm.
  For ideal gases, phi = 1.

Reaction step 76.

Using solution 1.	
Using temperature 1.	
Using pressure 1.	
Using reaction 1.	

Reaction 1.	

	  9.224e+00 moles of the following reaction have been added:

	                 Relative
	Reactant            moles

	NaNO3                1.00000

	                 Relative
	Element             moles
	N                    1.00000
	Na                   1.00000
	O                    3.00000

-----------------------------Solution composition------------------------------

	Elements           Molality       Moles

	N                 9.224e+00   9.224e+00
	Na                9.224e+00   9.224e+00

----------------------------Description of solution----------------------------

                                       pH  =   7.150      Charge balance
                                       pe  =  12.972      Adjusted to redox equilibrium
      Specific Conductance (µS/cm,  25°C)  = 215533
                          Density (g/cm³)  =   1.34531
                               Volume (L)  =   1.32609
                        Activity of water  =   0.686
                 Ionic strength (mol/kgw)  =   9.224e+00
                       Mass of water (kg)  =   1.000e+00
                 Total alkalinity (eq/kg)  =   1.161e-07
                         Temperature (°C)  =  25.00
                  Electrical balance (eq)  =   2.243e-08
 Percent error, 100*(Cat-|An|)/(Cat+|An|)  =   0.00
                               Iterations  =  13
                                  Total H  = 1.110124e+02
                                  Total O  = 8.317822e+01

----------------------------Distribution of species----------------------------

                                               Log       Log       Log    mole V
   Species          Molality    Activity  Molality  Activity     Gamma   cm³/mol

   OH-             2.173e-07   9.820e-08    -6.663    -7.008    -0.345      8.78
   H+              1.011e-07   7.075e-08    -6.995    -7.150    -0.155      0.00
   H2O             5.551e+01   6.864e-01     1.744    -0.163     0.000     18.07
H(0)          0.000e+00
   H2              0.000e+00   0.000e+00   -44.318   -43.396     0.922     28.61
N(0)          1.161e-07
   N2              5.806e-08   4.856e-07    -7.236    -6.314     0.922     29.29
N(3)          2.837e-11
   NO2-            2.837e-11   1.161e-11   -10.547   -10.935    -0.388     27.80
N(5)          9.224e+00
   NO3-            9.224e+00   3.776e+00     0.965     0.577    -0.388     33.14
Na            9.224e+00
   Na+             9.224e+00   2.605e+01     0.965     1.416     0.451      1.89
   NaOH            3.058e-17   2.558e-16   -16.514   -15.592     0.922     (0)  
O(0)          2.903e-07
   O2              1.452e-07   1.214e-06    -6.838    -5.916     0.922     30.40

------------------------------Saturation indices-------------------------------

  Phase               SI** log IAP   log K(298 K,   1 atm)

  H2(g)           -40.29    -43.40   -3.10  H2
  H2O(g)           -1.67     -0.16    1.50  H2O
  N2(g)            -3.14     -6.31   -3.18  N2
  O2(g)            -3.02     -5.92   -2.89  O2

**For a gas, SI = log10(fugacity). Fugacity = pressure * phi / 1 atm.
  For ideal gases, phi = 1.

Reaction step 77.

Using solution 1.	
Using temperature 1.	
Using pressure 1.	
Using reaction 1.	

Reaction 1.	

	  9.260e+00 moles of the following reaction have been added:

	                 Relative
	Reactant            moles

	NaNO3                1.00000

	                 Relative
	Element             moles
	N                    1.00000
	Na                   1.00000
	O                    3.00000

-----------------------------Solution composition------------------------------

	Elements           Molality       Moles

	N                 9.260e+00   9.260e+00
	Na                9.260e+00   9.260e+00

----------------------------Description of solution----------------------------

                                       pH  =   7.150      Charge balance
                                       pe  =  12.974      Adjusted to redox equilibrium
      Specific Conductance (µS/cm,  25°C)  = 215617
                          Density (g/cm³)  =   1.34619
                               Volume (L)  =   1.32749
                        Activity of water  =   0.685
                 Ionic strength (mol/kgw)  =   9.260e+00
                       Mass of water (kg)  =   1.000e+00
                 Total alkalinity (eq/kg)  =   1.155e-07
                         Temperature (°C)  =  25.00
                  Electrical balance (eq)  =   1.863e-08
 Percent error, 100*(Cat-|An|)/(Cat+|An|)  =   0.00
                               Iterations  =  13
                                  Total H  = 1.110124e+02
                                  Total O  = 8.328559e+01

----------------------------Distribution of species----------------------------

                                               Log       Log       Log    mole V
   Species          Molality    Activity  Molality  Activity     Gamma   cm³/mol

   OH-             2.167e-07   9.794e-08    -6.664    -7.009    -0.345      8.83
   H+              1.012e-07   7.081e-08    -6.995    -7.150    -0.155      0.00
   H2O             5.551e+01   6.852e-01     1.744    -0.164     0.000     18.07
H(0)          0.000e+00
   H2              0.000e+00   0.000e+00   -44.323   -43.397     0.926     28.61
N(0)          1.155e-07
   N2              5.775e-08   4.870e-07    -7.238    -6.312     0.926     29.29
N(3)          2.843e-11
   NO2-            2.843e-11   1.163e-11   -10.546   -10.934    -0.388     27.81
N(5)          9.260e+00
   NO3-            9.260e+00   3.789e+00     0.967     0.578    -0.388     33.15
Na            9.260e+00
   Na+             9.260e+00   2.632e+01     0.967     1.420     0.454      1.90
   NaOH            3.057e-17   2.578e-16   -16.515   -15.589     0.926     (0)  
O(0)          2.888e-07
   O2              1.444e-07   1.218e-06    -6.840    -5.914     0.926     30.40

------------------------------Saturation indices-------------------------------

  Phase               SI** log IAP   log K(298 K,   1 atm)

  H2(g)           -40.30    -43.40   -3.10  H2
  H2O(g)           -1.67     -0.16    1.50  H2O
  N2(g)            -3.14     -6.31   -3.18  N2
  O2(g)            -3.02     -5.91   -2.89  O2

**For a gas, SI = log10(fugacity). Fugacity = pressure * phi / 1 atm.
  For ideal gases, phi = 1.

Reaction step 78.

Using solution 1.	
Using temperature 1.	
Using pressure 1.	
Using reaction 1.	

Reaction 1.	

	  9.970e+00 moles of the following reaction have been added:

	                 Relative
	Reactant            moles

	NaNO3                1.00000

	                 Relative
	Element             moles
	N                    1.00000
	Na                   1.00000
	O                    3.00000

-----------------------------Solution composition------------------------------

	Elements           Molality       Moles

	N                 9.970e+00   9.970e+00
	Na                9.970e+00   9.970e+00

----------------------------Description of solution----------------------------

                                       pH  =   7.143      Charge balance
                                       pe  =  12.995      Adjusted to redox equilibrium
      Specific Conductance (µS/cm,  25°C)  = 216893
                          Density (g/cm³)  =   1.36306
                               Volume (L)  =   1.35532
                        Activity of water  =   0.661
                 Ionic strength (mol/kgw)  =   9.970e+00
                       Mass of water (kg)  =   1.000e+00
                 Total alkalinity (eq/kg)  =   1.039e-07
                         Temperature (°C)  =  25.00
                  Electrical balance (eq)  =   2.691e-10
 Percent error, 100*(Cat-|An|)/(Cat+|An|)  =   0.00
                               Iterations  =  13
                                  Total H  = 1.110124e+02
                                  Total O  = 8.541520e+01

----------------------------Distribution of species----------------------------

                                               Log       Log       Log    mole V
   Species          Molality    Activity  Molality  Activity     Gamma   cm³/mol

   OH-             2.070e-07   9.292e-08    -6.684    -7.032    -0.348      9.71
   H+              1.031e-07   7.201e-08    -6.987    -7.143    -0.156      0.00
   H2O             5.551e+01   6.610e-01     1.744    -0.180     0.000     18.07
H(0)          0.000e+00
   H2              0.000e+00   0.000e+00   -44.422   -43.425     0.997     28.61
N(0)          1.039e-07
   N2              5.194e-08   5.158e-07    -7.285    -6.288     0.997     29.29
N(3)          2.975e-11
   NO2-            2.975e-11   1.207e-11   -10.527   -10.918    -0.392     27.92
N(5)          9.970e+00
   NO3-            9.970e+00   4.046e+00     0.999     0.607    -0.392     33.32
Na            9.970e+00
   Na+             9.970e+00   3.224e+01     0.999     1.508     0.510      2.02
   NaOH            3.017e-17   2.996e-16   -16.520   -15.524     0.997     (0)  
O(0)          2.597e-07
   O2              1.299e-07   1.290e-06    -6.887    -5.890     0.997     30.40

------------------------------Saturation indices-------------------------------

  Phase               SI** log IAP   log K(298 K,   1 atm)

  H2(g)           -40.32    -43.42   -3.10  H2
  H2O(g)           -1.68     -0.18    1.50  H2O
  N2(g)            -3.11     -6.29   -3.18  N2
  O2(g)            -3.00     -5.89   -2.89  O2

**For a gas, SI = log10(fugacity). Fugacity = pressure * phi / 1 atm.
  For ideal gases, phi = 1.

Reaction step 79.

Using solution 1.	
Using temperature 1.	
Using pressure 1.	
Using reaction 1.	

Reaction 1.	

	  1.063e+01 moles of the following reaction have been added:

	                 Relative
	Reactant            moles

	NaNO3                1.00000

	                 Relative
	Element             moles
	N                    1.00000
	Na                   1.00000
	O                    3.00000

-----------------------------Solution composition------------------------------

	Elements           Molality       Moles

	N                 1.063e+01   1.063e+01
	Na                1.063e+01   1.063e+01

----------------------------Description of solution----------------------------

                                       pH  =   7.137      Charge balance
                                       pe  =  13.014      Adjusted to redox equilibrium
      Specific Conductance (µS/cm,  25°C)  = 217477
                          Density (g/cm³)  =   1.37781
                               Volume (L)  =   1.38144
                        Activity of water  =   0.639
                 Ionic strength (mol/kgw)  =   1.063e+01
                       Mass of water (kg)  =   1.000e+00
                 Total alkalinity (eq/kg)  =   9.384e-08
                         Temperature (°C)  =  25.00
                  Electrical balance (eq)  =   1.127e-12
 Percent error, 100*(Cat-|An|)/(Cat+|An|)  =   0.00
                               Iterations  =  13
                                  Total H  = 1.110124e+02
                                  Total O  = 8.739064e+01

----------------------------Distribution of species----------------------------

                                               Log       Log       Log    mole V
   Species          Molality    Activity  Molality  Activity     Gamma   cm³/mol

   OH-             1.984e-07   8.859e-08    -6.702    -7.053    -0.350     10.52
   H+              1.046e-07   7.297e-08    -6.981    -7.137    -0.156      0.00
   H2O             5.551e+01   6.386e-01     1.744    -0.195     0.000     18.07
H(0)          0.000e+00
   H2              0.000e+00   0.000e+00   -44.514   -43.451     1.063     28.61
N(0)          9.384e-08
   N2              4.692e-08   5.422e-07    -7.329    -6.266     1.063     29.29
N(3)          3.093e-11
   NO2-            3.093e-11   1.246e-11   -10.510   -10.904    -0.395     28.01
N(5)          1.063e+01
   NO3-            1.063e+01   4.283e+00     1.026     0.632    -0.395     33.47
Na            1.063e+01
   Na+             1.063e+01   3.875e+01     1.026     1.588     0.562      2.14
   NaOH            2.971e-17   3.433e-16   -16.527   -15.464     1.063     (0)  
O(0)          2.346e-07
   O2              1.173e-07   1.356e-06    -6.931    -5.868     1.063     30.40

------------------------------Saturation indices-------------------------------

  Phase               SI** log IAP   log K(298 K,   1 atm)

  H2(g)           -40.35    -43.45   -3.10  H2
  H2O(g)           -1.70     -0.19    1.50  H2O
  N2(g)            -3.09     -6.27   -3.18  N2
  O2(g)            -2.98     -5.87   -2.89  O2

**For a gas, SI = log10(fugacity). Fugacity = pressure * phi / 1 atm.
  For ideal gases, phi = 1.

Reaction step 80.

Using solution 1.	
Using temperature 1.	
Using pressure 1.	
Using reaction 1.	

Reaction 1.	

	  1.076e+01 moles of the following reaction have been added:

	                 Relative
	Reactant            moles

	NaNO3                1.00000

	                 Relative
	Element             moles
	N                    1.00000
	Na                   1.00000
	O                    3.00000

-----------------------------Solution composition------------------------------

	Elements           Molality       Moles

	N                 1.076e+01   1.076e+01
	Na                1.076e+01   1.076e+01

----------------------------Description of solution----------------------------

                                       pH  =   7.136      Charge balance
                                       pe  =  13.017      Adjusted to redox equilibrium
      Specific Conductance (µS/cm,  25°C)  = 217531
                          Density (g/cm³)  =   1.38056
                               Volume (L)  =   1.38652
                        Activity of water  =   0.634
                 Ionic strength (mol/kgw)  =   1.076e+01
                       Mass of water (kg)  =   1.000e+00
                 Total alkalinity (eq/kg)  =   9.198e-08
                         Temperature (°C)  =  25.00
                  Electrical balance (eq)  =   4.564e-13
 Percent error, 100*(Cat-|An|)/(Cat+|An|)  =   0.00
                               Iterations  =  13
                                  Total H  = 1.110124e+02
                                  Total O  = 8.777224e+01

----------------------------Distribution of species----------------------------

                                               Log       Log       Log    mole V
   Species          Molality    Activity  Molality  Activity     Gamma   cm³/mol

   OH-             1.968e-07   8.779e-08    -6.706    -7.057    -0.351     10.68
   H+              1.048e-07   7.313e-08    -6.979    -7.136    -0.156      0.00
   H2O             5.551e+01   6.343e-01     1.744    -0.198     0.000     18.07
H(0)          0.000e+00
   H2              0.000e+00   0.000e+00   -44.531   -43.456     1.076     28.61
N(0)          9.198e-08
   N2              4.599e-08   5.473e-07    -7.337    -6.262     1.076     29.29
N(3)          3.115e-11
   NO2-            3.115e-11   1.254e-11   -10.506   -10.902    -0.395     28.03
N(5)          1.076e+01
   NO3-            1.076e+01   4.329e+00     1.032     0.636    -0.395     33.50
Na            1.076e+01
   Na+             1.076e+01   4.014e+01     1.032     1.604     0.572      2.16
   NaOH            2.961e-17   3.524e-16   -16.529   -15.453     1.076     (0)  
O(0)          2.300e-07
   O2              1.150e-07   1.368e-06    -6.939    -5.864     1.076     30.40

------------------------------Saturation indices-------------------------------

  Phase               SI** log IAP   log K(298 K,   1 atm)

  H2(g)           -40.35    -43.46   -3.10  H2
  H2O(g)           -1.70     -0.20    1.50  H2O
  N2(g)            -3.09     -6.26   -3.18  N2
  O2(g)            -2.97     -5.86   -2.89  O2

**For a gas, SI = log10(fugacity). Fugacity = pressure * phi / 1 atm.
  For ideal gases, phi = 1.

Reaction step 81.

Using solution 1.	
Using temperature 1.	
Using pressure 1.	
Using reaction 1.	

Reaction 1.	

	  1.127e+01 moles of the following reaction have been added:

	                 Relative
	Reactant            moles

	NaNO3                1.00000

	                 Relative
	Element             moles
	N                    1.00000
	Na                   1.00000
	O                    3.00000

-----------------------------Solution composition------------------------------

	Elements           Molality       Moles

	N                 1.127e+01   1.127e+01
	Na                1.127e+01   1.127e+01

----------------------------Description of solution----------------------------

                                       pH  =   7.132      Charge balance
                                       pe  =  13.031      Adjusted to redox equilibrium
      Specific Conductance (µS/cm,  25°C)  = 217570
                          Density (g/cm³)  =   1.39133
                               Volume (L)  =   1.40708
                        Activity of water  =   0.617
                 Ionic strength (mol/kgw)  =   1.127e+01
                       Mass of water (kg)  =   1.000e+00
                 Total alkalinity (eq/kg)  =   8.478e-08
                         Temperature (°C)  =  25.00
                  Electrical balance (eq)  =   5.078e-14
 Percent error, 100*(Cat-|An|)/(Cat+|An|)  =   0.00
                               Iterations  =  13
                                  Total H  = 1.110124e+02
                                  Total O  = 8.930905e+01

----------------------------Distribution of species----------------------------

                                               Log       Log       Log    mole V
   Species          Molality    Activity  Molality  Activity     Gamma   cm³/mol

   OH-             1.906e-07   8.467e-08    -6.720    -7.072    -0.352     11.31
   H+              1.058e-07   7.374e-08    -6.976    -7.132    -0.157      0.00
   H2O             5.551e+01   6.169e-01     1.744    -0.210     0.000     18.07
H(0)          0.000e+00
   H2              0.000e+00   0.000e+00   -44.603   -43.476     1.127     28.61
N(0)          8.478e-08
   N2              4.239e-08   5.676e-07    -7.373    -6.246     1.127     29.29
N(3)          3.205e-11
   NO2-            3.205e-11   1.284e-11   -10.494   -10.892    -0.397     28.10
N(5)          1.127e+01
   NO3-            1.127e+01   4.513e+00     1.052     0.654    -0.397     33.62
Na            1.127e+01
   Na+             1.127e+01   4.618e+01     1.052     1.664     0.613      2.24
   NaOH            2.920e-17   3.910e-16   -16.535   -15.408     1.127     (0)  
O(0)          2.120e-07
   O2              1.060e-07   1.419e-06    -6.975    -5.848     1.127     30.40

------------------------------Saturation indices-------------------------------

  Phase               SI** log IAP   log K(298 K,   1 atm)

  H2(g)           -40.37    -43.48   -3.10  H2
  H2O(g)           -1.71     -0.21    1.50  H2O
  N2(g)            -3.07     -6.25   -3.18  N2
  O2(g)            -2.96     -5.85   -2.89  O2

**For a gas, SI = log10(fugacity). Fugacity = pressure * phi / 1 atm.
  For ideal gases, phi = 1.

------------------
End of simulation.
------------------

-------------------------------------
Reading input data for simulation 11.
-------------------------------------

-------------------------------
End of Run after 0.208 Seconds.
-------------------------------

