   Input file: xsoln_visc
  Output file: xsoln_visc.out
Database file: ../database/phreeqc.dat

------------------
Reading data base.
------------------

	SOLUTION_MASTER_SPECIES
	SOLUTION_SPECIES
	PHASES
	GAS_BINARY_PARAMETERS
	EXCHANGE_MASTER_SPECIES
	EXCHANGE_SPECIES
	SURFACE_MASTER_SPECIES
	SURFACE_SPECIES
	MEAN_GAMMAS
	RATES
	END
------------------------------------
Reading input data for simulation 1.
------------------------------------

	DATABASE ../database/phreeqc.dat
	SELECTED_OUTPUT 101
	    file                 xsoln_visc_101.sel
	USER_PUNCH 101
	    headings Mu SC
	    start
	10 PUNCH STR_F$(MU, 20, 12)
	20 PUNCH STR_F$(VISCOS, 20, 10)
	    end
	SOLUTION 2
	pH 7 charge
	END
-------------------------------------------
Beginning of initial solution calculations.
-------------------------------------------

Initial solution 2.	

-----------------------------Solution composition------------------------------

	Elements           Molality       Moles

	Pure water     

----------------------------Description of solution----------------------------

                                       pH  =   6.997      Charge balance
                                       pe  =   4.000    
      Specific Conductance (µS/cm,  25°C)  = 0
                          Density (g/cm³)  =   0.99704
                               Volume (L)  =   1.00297
                        Viscosity (mPa s)  =   0.89002
                        Activity of water  =   1.000
                 Ionic strength (mol/kgw)  =   1.006e-07
                       Mass of water (kg)  =   1.000e+00
                 Total alkalinity (eq/kg)  =   3.040e-17
                         Temperature (°C)  =  25.00
                  Electrical balance (eq)  =  -3.040e-17
 Percent error, 100*(Cat-|An|)/(Cat+|An|)  =  -0.00
                               Iterations  =   2
                                  Total H  = 1.110124e+02
                                  Total O  = 5.550622e+01

----------------------------Distribution of species----------------------------

                                               Log       Log       Log    mole V
   Species          Molality    Activity  Molality  Activity     Gamma   cm³/mol

   OH-             1.006e-07   1.006e-07    -6.997    -6.997    -0.000     -4.14
   H+              1.006e-07   1.006e-07    -6.997    -6.997    -0.000      0.00
   H2O             5.551e+01   1.000e+00     1.744    -0.000     0.000     18.07
H(0)          1.433e-25
   H2              7.166e-26   7.166e-26   -25.145   -25.145     0.000     28.61
O(0)          0.000e+00
   O2              0.000e+00   0.000e+00   -42.073   -42.073     0.000     30.40

------------------------------Saturation indices-------------------------------

  Phase               SI** log IAP   log K(298 K,   1 atm)

  H2(g)           -22.04    -25.14   -3.10  H2
  H2O(g)           -1.50     -0.00    1.50  H2O
  O2(g)           -39.18    -42.07   -2.89  O2

**For a gas, SI = log10(fugacity). Fugacity = pressure * phi / 1 atm.
  For ideal gases, phi = 1.

------------------
End of simulation.
------------------

------------------------------------
Reading input data for simulation 2.
------------------------------------

	USE solution 2 
	REACTION 1
	 Na2SO4 0.10560138   
	REACTION_TEMPERATURE
	         197.55       
	END     
-----------------------------------------
Beginning of batch-reaction calculations.
-----------------------------------------

Reaction step 1.

Using solution 2.	
Using temperature 1.	
Using reaction 1.	

Reaction 1.	

	  1.000e+00 moles of the following reaction have been added:

	                 Relative
	Reactant            moles

	Na2SO4               0.10560

	                 Relative
	Element             moles
	Na                   0.21120
	O                    0.42241
	S                    0.10560

-----------------------------Solution composition------------------------------

	Elements           Molality       Moles

	Na                2.112e-01   2.112e-01
	S                 1.056e-01   1.056e-01

----------------------------Description of solution----------------------------

                                       pH  =   6.668      Charge balance
                                       pe  =   2.833      Adjusted to redox equilibrium
      Specific Conductance (µS/cm, 198°C)  = 61246
                          Density (g/cm³)  =   0.88129
                               Volume (L)  =   1.15173
                        Viscosity (mPa s)  =   0.13948
                        Activity of water  =   0.996
                 Ionic strength (mol/kgw)  =   1.687e-01
                       Mass of water (kg)  =   1.000e+00
                 Total alkalinity (eq/kg)  =  -4.859e-15
                         Temperature (°C)  = 197.55
                           Pressure (atm)  = 14.60
                  Electrical balance (eq)  =   3.263e-12
 Percent error, 100*(Cat-|An|)/(Cat+|An|)  =   0.00
                               Iterations  =  14
                                  Total H  = 1.110124e+02
                                  Total O  = 5.592862e+01

----------------------------Distribution of species----------------------------

                                               Log       Log       Log    mole V
   Species          Molality    Activity  Molality  Activity     Gamma   cm³/mol

   OH-             3.647e-05   2.214e-05    -4.438    -4.655    -0.217    -22.11
   H+              2.966e-07   2.146e-07    -6.528    -6.668    -0.141      0.00
   H2O             5.551e+01   9.960e-01     1.744    -0.002     0.000     20.77
H(0)          4.520e-23
   H2              2.260e-23   2.350e-23   -22.646   -22.629     0.017     28.55
Na            2.112e-01
   Na+             1.295e-01   8.336e-02    -0.888    -1.079    -0.191      1.82
   NaSO4-          5.087e-02   3.220e-02    -1.294    -1.492    -0.199     -9.48
   Na2SO4          1.543e-02   1.597e-02    -1.812    -1.797     0.015     20.54
O(0)          1.197e-16
   O2              5.984e-17   6.221e-17   -16.223   -16.206     0.017     39.03
S(-2)         0.000e+00
   H2S             0.000e+00   0.000e+00   -67.031   -67.014     0.017     55.45
   HS-             0.000e+00   0.000e+00   -67.149   -67.365    -0.217      8.33
   S-2             0.000e+00   0.000e+00   -69.607   -70.362    -0.755     (0)  
   (H2S)2          0.000e+00   0.000e+00  -134.989  -134.972     0.017     -2.62
S(6)          1.056e-01
   NaSO4-          5.087e-02   3.220e-02    -1.294    -1.492    -0.199     -9.48
   SO4-2           3.927e-02   6.789e-03    -1.406    -2.168    -0.762    -27.10
   Na2SO4          1.543e-02   1.597e-02    -1.812    -1.797     0.015     20.54
   HSO4-           3.618e-05   2.317e-05    -4.442    -4.635    -0.194     32.23

------------------------------Saturation indices-------------------------------

  Phase               SI** log IAP   log K(470 K,  15 atm)

  H2(g)           -19.81    -22.63   -2.82  H2
  H2O(g)            1.13     -0.00   -1.13  H2O
  H2S(g)          -65.48    -74.03   -8.56  H2S
  Mirabilite      -19.46     -4.34   15.12  Na2SO4:10H2O
  O2(g)           -13.32    -16.21   -2.88  O2
  Sulfur          -50.33    -48.01    2.32  S
  Thenardite       -2.25     -4.33   -2.08  Na2SO4

**For a gas, SI = log10(fugacity). Fugacity = pressure * phi / 1 atm.
  For ideal gases, phi = 1.

------------------
End of simulation.
------------------

------------------------------------
Reading input data for simulation 3.
------------------------------------

	USE solution 2 
	REACTION 1
	 Na2SO4 0
	REACTION_TEMPERATURE
	         25.00 
	END   
-----------------------------------------
Beginning of batch-reaction calculations.
-----------------------------------------

Reaction step 1.

Using solution 2.	
Using temperature 1.	
Using reaction 1.	

Reaction 1.	

	  1.000e+00 moles of the following reaction have been added:

	                 Relative
	Reactant            moles

	Na2SO4               0.00000

	                 Relative
	Element             moles
	Na                   0.00000
	O                    0.00000
	S                    0.00000

-----------------------------Solution composition------------------------------

	Elements           Molality       Moles

	Pure water     

----------------------------Description of solution----------------------------

                                       pH  =   6.997      Charge balance
                                       pe  =   4.000      Adjusted to redox equilibrium
      Specific Conductance (µS/cm,  25°C)  = 0
                          Density (g/cm³)  =   0.99704
                               Volume (L)  =   1.00297
                        Viscosity (mPa s)  =   0.89002
                        Activity of water  =   1.000
                 Ionic strength (mol/kgw)  =   1.006e-07
                       Mass of water (kg)  =   1.000e+00
                 Total alkalinity (eq/kg)  =   3.040e-17
                         Temperature (°C)  =  25.00
                  Electrical balance (eq)  =  -3.040e-17
 Percent error, 100*(Cat-|An|)/(Cat+|An|)  =  -0.00
                               Iterations  =   0
                                  Total H  = 1.110124e+02
                                  Total O  = 5.550622e+01

----------------------------Distribution of species----------------------------

                                               Log       Log       Log    mole V
   Species          Molality    Activity  Molality  Activity     Gamma   cm³/mol

   OH-             1.006e-07   1.006e-07    -6.997    -6.997    -0.000     -4.14
   H+              1.006e-07   1.006e-07    -6.997    -6.997    -0.000      0.00
   H2O             5.551e+01   1.000e+00     1.744    -0.000     0.000     18.07
H(0)          1.433e-25
   H2              7.166e-26   7.166e-26   -25.145   -25.145     0.000     28.61
O(0)          0.000e+00
   O2              0.000e+00   0.000e+00   -42.073   -42.073     0.000     30.40

------------------------------Saturation indices-------------------------------

  Phase               SI** log IAP   log K(298 K,   1 atm)

  H2(g)           -22.04    -25.14   -3.10  H2
  H2O(g)           -1.50     -0.00    1.50  H2O
  O2(g)           -39.18    -42.07   -2.89  O2

**For a gas, SI = log10(fugacity). Fugacity = pressure * phi / 1 atm.
  For ideal gases, phi = 1.

------------------
End of simulation.
------------------

------------------------------------
Reading input data for simulation 4.
------------------------------------

